
12:48:34 : =========================== NOVA SESSÃO ==========================
Tentativa de logar na conta (ADMIN5) - IP: 84.123.38.2 Mac: (0B:A7:7A:4E:00:4C). ClientId: 2
12:48:34 : Usuário logou no jogo com clientId 2. - Servidor 2. Gold do banco: 1000000000
12:48:34 : [INFORMAÇÕES DO BANCO]
Gold: 1000000000
[  0] - Arco_Guardião[3556] [43 9 2 36 0 0]
[ 80] - Andaluz_N[2370] [10 10 100 60 10 0]
[ 85] - Aranha[2360] [245 26 39 20 0 0]
[ 90] - Ração_de_Aranha[2420] [61 120 0 0 0 0]
[ 95] - Resto_de_Oriharucon[419] [61 10 0 0 0 0]
[100] - Resto_de_Lactolerium[420] [59 46 59 14 59 61]
[105] - Poeira_de_Lactolerium[413] [61 214 0 0 0 0]
[200] - Caixa_do_Andarilho[3479] [106 21 110 2 109 121]
[201] - Caixa_do_Andarilho[3479] [106 21 110 2 109 121]

12:48:34 : [INFORMAÇÕES DA CONTA]
Personagem na seleção de personagem. Sem informações no momento
Tempo online até o momento: 00 dias e 00:00:01 horas

[USUÁRIOS LOGADOS]
Nenhuma outra conta logada 

12:48:39 : Solicitou ir ao mundo...
12:48:39 : Recebido pedido para entrar no jogo
12:48:39 : Recebido informação do personagem completa.
12:48:39 : [AeroDynamik] - [INFORMAÇÕES DA CONTA]
Personagem online: AeroDynamik
Gold atual: 497809239
Level atual: 399
Experiência atual: 4114840203
Evolução atual: Unknown
Tempo online até o momento: 00 dias e 00:00:05 horas
Posição atual: 2086x 2102y

Pontos NT: 0
Entradas Hall: 0
Info: 0
Soul: 0
Divina: 0/0/0 0:0:0
Sephira: 0/0/0 0:0:0
Saude: 0/0/0 0:0:0
Escritura: 0/0/0 0:0:0
Revigorante: 0/0/0 0:0:0
LastGuildKickout: 0/0/0 0:0:0
[EQUIPAMENTOS]
[00] - Rogue[31] [43 0 31 0 1 1]
[01] - Chapéu(A)[1643] [43 237 3 25 26 18]
[02] - Peitoral(A)[1646] [43 237 2 30 71 70]
[03] - Calça(A)[1649] [43 237 2 30 71 70]
[04] - Braçadeira(A)[1652] [43 237 54 18 72 30]
[05] - Botas(A)[1655] [43 237 73 30 74 18]
[06] - Arco[825] [2 45 43 1 0 0]
[08] - Brinco_de_Titã[592] [43 9 0 0 0 0]
[09] - Amuleto_de_Prata[551] [43 9 2 99 0 0]
[10] - Pedra_Espiritual[633] [43 9 0 0 0 0]
[11] - Ankh_da_Glória[663] [43 9 0 0 0 0]
[12] - Conjunto_Esqueleto[4153] [96 21 2 21 0 32]
[14] - Grifo_Sangrento[2386] [116 97 100 60 10 0]

[INVENTÁRIO]
[00] - Fada_Vermelha(3dias)[3902] [106 2 107 22 108 59]
[01] - Ultra_Poção_de_Mana[409] [61 43 0 0 0 0]
[02] - [S]Caixa_Poção_de_Cura[3322] [61 30 0 0 0 0]
[03] - Trombeta_Mágica[3330] [61 119 0 0 0 0]
[04] - Ração_de_Fenrir[2436] [61 5 0 0 0 0]
[05] - Fenrir[2376] [128 55 100 60 10 0]
[06] - Gema_da_Siren[658] [0 0 0 0 0 0]
[07] - Chapéu(M)[1342] [43 0 59 0 59 0]
[08] - Baú_de_Experiência[4140] [61 235 0 0 0 0]
[09] - Ração_de_Fenrir[2436] [61 5 0 0 0 0]
[10] - Chapéu(M)[1342] [43 1 60 4 59 0]
[11] - Luvas(M)[1501] [43 1 72 15 2 24]
[12] - Pedido_de_Caça(Kult)[3435] [61 9 0 0 0 0]
[13] - Baú_de_Caça[4139] [61 236 0 0 0 0]
[14] - Frango_Assado[3314] [61 235 0 0 0 0]
[15] - Calça(A)[1809] [43 0 71 50 59 0]
[16] - Jóia_da_Absorção[3204] [61 6 0 0 0 0]
[17] - Jóia_da_Proteção[3205] [61 6 0 0 0 0]
[18] - Jóia_do_Poder[3206] [61 6 0 0 0 0]
[19] - Jóia_da_Precisão[3208] [61 6 0 0 0 0]
[20] - Armadura(A)[1805] [43 0 71 40 60 4]
[21] - Jaqueta(N)[1554] [43 0 71 30 59 0]
[22] - Chapéu(N)[1551] [43 0 26 15 59 0]
[25] - Poeira_de_Lactolerium[413] [61 25 0 0 0 0]
[60] - Bolsa_do_Andarilho[3467] [106 21 110 2 109 121]
[61] - Bolsa_do_Andarilho[3467] [106 21 110 2 109 121]
[63] - Marca_do_Assassino[547] [150 0 0 0 77 0]

[USUÁRIOS LOGADOS]
Nenhuma outra conta logada 

12:48:39 : [AeroDynamik] - Personagem AeroDynamik enviado ao mundo 2086x 2102y - Canal 2 - Cash da conta: 15918. PowerLevel: 3677
12:48:39 : [AeroDynamik] - Gold atual: 497809239. Classe: 3 Evolução: 0. Experiência: 4114840203. Nível: 399. Info: 0. GuildID: 0. CP: 75. Pontos de Contribuição: 0. Limite: 0
12:48:39 : [AeroDynamik] - Logou no personagem AeroDynamik com poção divina ativo. Validade: 21/2/2021 9:16:26
12:48:39 : [AeroDynamik] - Logou no personagem AeroDynamik com frango ativo. Tempo: 1789
12:48:39 : [AeroDynamik] - Logou no personagem AeroDynamik com baú de experiência ativo. Tempo: 2955
12:48:39 : [AeroDynamik] - Resetado a contagem de entradas água! Day: 28-31. Total: 0
12:48:39 : [AeroDynamik] - Enviado informações do personagem
12:48:41 : [AeroDynamik] - Comando "/day "
12:48:41 : [AeroDynamik] - [Mensagem do servidor]> !#11 2
12:48:45 : [AeroDynamik] - O usuï¿½rio nï¿½o enviou o pacote de integridade de macaddress
12:48:53 : [AeroDynamik] - Teleportado para a posição 2482 1717
12:53:42 : [AeroDynamik] - Matou o mob E-Dracolich. GenerID: 1406
12:53:43 : [AeroDynamik] - Removido o Hp do mob Dracorich. HP removido: 4057. HP Atual: 443
12:53:44 : [AeroDynamik] - Removido o Hp do mob Dracorich. HP removido: 4057. HP Atual: 0
12:53:44 : [AeroDynamik] - Matou o mob Dracorich. GenerID: 1406
12:53:47 : [AeroDynamik] - Matou o mob Basilisco Ifrit. GenerID: 1405
12:53:48 : [AeroDynamik] - Matou o mob Basilisco Ifrit. GenerID: 1404
12:53:49 : [AeroDynamik] - Removido o Hp do mob Dracorich. HP removido: 4267. HP Atual: 0
12:53:49 : [AeroDynamik] - Matou o mob Dracorich. GenerID: 1406
12:53:56 : [AeroDynamik] - Comando "/gm +move armai"
12:53:56 : [AeroDynamik] - [Mensagem do servidor]> Coordenadas inválidas
12:53:59 : [AeroDynamik] - Comando "/gm +move armia"
12:53:59 : [AeroDynamik] - Teleportado para a posição 2100 2100
12:58:27 : [AeroDynamik] - ADMIN5 Recebeu lParam (WndProc) como 32. Erro possível: 10053. Desconectando o usuário.
12:58:27 : [AeroDynamik] - 2 Personagem foi desconectado. Permaneceu 00:09:45 minutos online