
19:21:21 : =========================== NOVA SESSÃO ==========================
Tentativa de logar na conta (ADMIN5) - IP: 84.123.38.2 Mac: (0B:A7:7A:4E:00:4C). ClientId: 1
19:21:21 : Usuário logou no jogo com clientId 1. - Servidor 2. Gold do banco: 1000000000
19:21:21 : [INFORMAÇÕES DO BANCO]
Gold: 1000000000
[ 80] - Andaluz_N[2370] [10 10 100 60 10 0]
[ 85] - Aranha[2360] [245 26 39 20 0 0]
[ 90] - Ração_de_Aranha[2420] [61 120 0 0 0 0]
[ 95] - Resto_de_Oriharucon[419] [61 10 0 0 0 0]
[100] - Resto_de_Lactolerium[420] [59 46 59 14 59 61]
[105] - Poeira_de_Lactolerium[413] [61 214 0 0 0 0]
[200] - Caixa_do_Andarilho[3479] [106 21 110 2 109 121]
[201] - Caixa_do_Andarilho[3479] [106 21 110 2 109 121]

19:21:33 : Solicitou ir ao mundo...
19:21:33 : Recebido pedido para entrar no jogo
19:21:33 : Recebido informação do personagem completa.
19:21:33 : [AeroDynamik] - [INFORMAÇÕES DA CONTA]
Personagem online: AeroDynamik
Gold atual: 501314672
Level atual: 399
Experiência atual: 4114840122
Evolução atual: Unknown
Tempo online até o momento: 00 dias e 00:00:12 horas
Posição atual: 2507x 1718y

Pontos NT: 0
Entradas Hall: 0
Info: 0
Soul: 0
Divina: 0/0/0 0:0:0
Sephira: 0/0/0 0:0:0
Saude: 0/0/0 0:0:0
Escritura: 0/0/0 0:0:0
Revigorante: 0/0/0 0:0:0
LastGuildKickout: 0/0/0 0:0:0
[EQUIPAMENTOS]
[00] - Rogue[31] [43 0 31 0 1 1]
[01] - Chapéu(A)[1643] [43 237 3 25 26 18]
[02] - Peitoral(A)[1646] [43 237 2 30 71 70]
[03] - Calça(A)[1649] [43 237 2 30 71 70]
[04] - Braçadeira(A)[1652] [43 237 54 18 72 30]
[05] - Botas(A)[1655] [43 237 73 30 74 18]
[06] - Arco_Guardião[3556] [43 9 2 36 0 0]
[08] - Brinco_de_Titã[592] [43 9 0 0 0 0]
[09] - Amuleto_de_Prata[551] [43 9 2 99 0 0]
[10] - Pedra_Espiritual[633] [43 9 0 0 0 0]
[11] - Ankh_da_Glória[663] [43 9 0 0 0 0]
[12] - Conjunto_Esqueleto[4153] [96 21 2 21 0 32]
[14] - Grifo_Sangrento[2386] [22 100 100 60 10 0]

[INVENTÁRIO]
[00] - Fada_Vermelha(3dias)[3902] [106 2 107 22 108 59]
[01] - Ultra_Poção_de_Mana[409] [61 47 0 0 0 0]
[02] - [S]Caixa_Poção_de_Cura[3322] [61 30 0 0 0 0]
[03] - Trombeta_Mágica[3330] [61 119 0 0 0 0]
[04] - Ração_de_Fenrir[2436] [61 5 0 0 0 0]
[05] - Fenrir[2376] [128 55 100 60 10 0]
[06] - Gema_da_Siren[658] [0 0 0 0 0 0]
[07] - Chapéu(M)[1342] [43 0 59 0 59 0]
[08] - Baú_de_Experiência[4140] [61 236 0 0 0 0]
[09] - Ração_de_Fenrir[2436] [61 5 0 0 0 0]
[10] - Chapéu(M)[1342] [43 1 60 4 59 0]
[11] - Luvas(M)[1501] [43 1 72 15 2 24]
[13] - Baú_de_Caça[4139] [61 236 0 0 0 0]
[14] - Frango_Assado[3314] [61 236 0 0 0 0]
[15] - Poeira_de_Lactolerium[413] [61 52 0 0 0 0]
[16] - Jóia_da_Absorção[3204] [61 7 0 0 0 0]
[17] - Jóia_da_Proteção[3205] [61 7 0 0 0 0]
[18] - Jóia_do_Poder[3206] [61 7 0 0 0 0]
[19] - Jóia_da_Precisão[3208] [61 7 0 0 0 0]
[60] - Bolsa_do_Andarilho[3467] [106 21 110 2 109 121]
[61] - Bolsa_do_Andarilho[3467] [106 21 110 2 109 121]
[63] - Marca_do_Assassino[547] [150 0 0 0 77 0]

[USUÁRIOS LOGADOS]
Nenhuma outra conta logada 

19:21:33 : [AeroDynamik] - Personagem AeroDynamik enviado ao mundo 2507x 1718y - Canal 2 - Cash da conta: 15918. PowerLevel: 4127
19:21:33 : [AeroDynamik] - Gold atual: 501314672. Classe: 3 Evolução: 0. Experiência: 4114840122. Nível: 399. Info: 0. GuildID: 0. CP: 75. Pontos de Contribuição: 0. Limite: 0
19:21:33 : [AeroDynamik] - Logou no personagem AeroDynamik com poção divina ativo. Validade: 21/2/2021 9:16:26
19:21:33 : [AeroDynamik] - Logou no personagem AeroDynamik com frango ativo. Tempo: 1158
19:21:33 : [AeroDynamik] - Logou no personagem AeroDynamik com baú de experiência ativo. Tempo: 2338
19:21:33 : [AeroDynamik] - Resetado a contagem de entradas água! Day: 23-24. Total: 0
19:21:33 : [AeroDynamik] - [Mensagem do servidor]> O Kefra foi derrotado
19:21:33 : [AeroDynamik] - Enviado informações do personagem
19:21:35 : [AeroDynamik] - Comando "/day "
19:21:35 : [AeroDynamik] - [Mensagem do servidor]> !#11 2
19:21:39 : [AeroDynamik] - O usuï¿½rio nï¿½o enviou o pacote de integridade de macaddress
19:25:53 : [AeroDynamik] - ADMIN5 Recebeu lParam (WndProc) como 32. Erro possível: 10053. Desconectando o usuário.
19:25:53 : [AeroDynamik] - 1 Personagem foi desconectado. Permaneceu 00:04:29 minutos online
19:26:13 : =========================== NOVA SESSÃO ==========================
Tentativa de logar na conta (ADMIN5) - IP: 84.123.38.2 Mac: (0B:A7:7A:4E:00:4C). ClientId: 1
19:26:13 : Usuário logou no jogo com clientId 1. - Servidor 2. Gold do banco: 1000000000
19:26:13 : [INFORMAÇÕES DO BANCO]
Gold: 1000000000
[ 80] - Andaluz_N[2370] [10 10 100 60 10 0]
[ 85] - Aranha[2360] [245 26 39 20 0 0]
[ 90] - Ração_de_Aranha[2420] [61 120 0 0 0 0]
[ 95] - Resto_de_Oriharucon[419] [61 10 0 0 0 0]
[100] - Resto_de_Lactolerium[420] [59 46 59 14 59 61]
[105] - Poeira_de_Lactolerium[413] [61 214 0 0 0 0]
[200] - Caixa_do_Andarilho[3479] [106 21 110 2 109 121]
[201] - Caixa_do_Andarilho[3479] [106 21 110 2 109 121]

19:26:18 : Solicitou ir ao mundo...
19:26:18 : Recebido pedido para entrar no jogo
19:26:18 : Recebido informação do personagem completa.
19:26:18 : [AeroDynamik] - [INFORMAÇÕES DA CONTA]
Personagem online: AeroDynamik
Gold atual: 501314672
Level atual: 399
Experiência atual: 4114840122
Evolução atual: Unknown
Tempo online até o momento: 00 dias e 00:00:06 horas
Posição atual: 2495x 1719y

Pontos NT: 0
Entradas Hall: 0
Info: 0
Soul: 0
Divina: 0/0/0 0:0:0
Sephira: 0/0/0 0:0:0
Saude: 0/0/0 0:0:0
Escritura: 0/0/0 0:0:0
Revigorante: 0/0/0 0:0:0
LastGuildKickout: 0/0/0 0:0:0
[EQUIPAMENTOS]
[00] - Rogue[31] [43 0 31 0 1 1]
[01] - Chapéu(A)[1643] [43 237 3 25 26 18]
[02] - Peitoral(A)[1646] [43 237 2 30 71 70]
[03] - Calça(A)[1649] [43 237 2 30 71 70]
[04] - Braçadeira(A)[1652] [43 237 54 18 72 30]
[05] - Botas(A)[1655] [43 237 73 30 74 18]
[06] - Arco_Guardião[3556] [43 9 2 36 0 0]
[08] - Brinco_de_Titã[592] [43 9 0 0 0 0]
[09] - Amuleto_de_Prata[551] [43 9 2 99 0 0]
[10] - Pedra_Espiritual[633] [43 9 0 0 0 0]
[11] - Ankh_da_Glória[663] [43 9 0 0 0 0]
[12] - Conjunto_Esqueleto[4153] [96 21 2 21 0 32]
[14] - Grifo_Sangrento[2386] [22 100 100 60 10 0]

[INVENTÁRIO]
[00] - Fada_Vermelha(3dias)[3902] [106 2 107 22 108 59]
[01] - Ultra_Poção_de_Mana[409] [61 47 0 0 0 0]
[02] - [S]Caixa_Poção_de_Cura[3322] [61 30 0 0 0 0]
[03] - Trombeta_Mágica[3330] [61 119 0 0 0 0]
[04] - Ração_de_Fenrir[2436] [61 5 0 0 0 0]
[05] - Fenrir[2376] [128 55 100 60 10 0]
[06] - Gema_da_Siren[658] [0 0 0 0 0 0]
[07] - Chapéu(M)[1342] [43 0 59 0 59 0]
[08] - Baú_de_Experiência[4140] [61 236 0 0 0 0]
[09] - Ração_de_Fenrir[2436] [61 5 0 0 0 0]
[10] - Chapéu(M)[1342] [43 1 60 4 59 0]
[11] - Luvas(M)[1501] [43 1 72 15 2 24]
[13] - Baú_de_Caça[4139] [61 236 0 0 0 0]
[14] - Frango_Assado[3314] [61 236 0 0 0 0]
[15] - Poeira_de_Lactolerium[413] [61 52 0 0 0 0]
[16] - Jóia_da_Absorção[3204] [61 7 0 0 0 0]
[17] - Jóia_da_Proteção[3205] [61 7 0 0 0 0]
[18] - Jóia_do_Poder[3206] [61 7 0 0 0 0]
[19] - Jóia_da_Precisão[3208] [61 7 0 0 0 0]
[60] - Bolsa_do_Andarilho[3467] [106 21 110 2 109 121]
[61] - Bolsa_do_Andarilho[3467] [106 21 110 2 109 121]
[63] - Marca_do_Assassino[547] [150 0 0 0 77 0]

[USUÁRIOS LOGADOS]
Nenhuma outra conta logada 

19:26:18 : [AeroDynamik] - Personagem AeroDynamik enviado ao mundo 2495x 1719y - Canal 2 - Cash da conta: 15918. PowerLevel: 4127
19:26:18 : [AeroDynamik] - Gold atual: 501314672. Classe: 3 Evolução: 0. Experiência: 4114840122. Nível: 399. Info: 0. GuildID: 0. CP: 75. Pontos de Contribuição: 0. Limite: 0
19:26:18 : [AeroDynamik] - Logou no personagem AeroDynamik com poção divina ativo. Validade: 21/2/2021 9:16:26
19:26:18 : [AeroDynamik] - Logou no personagem AeroDynamik com frango ativo. Tempo: 1126
19:26:18 : [AeroDynamik] - Logou no personagem AeroDynamik com baú de experiência ativo. Tempo: 2306
19:26:18 : [AeroDynamik] - [Mensagem do servidor]> O Kefra foi derrotado
19:26:18 : [AeroDynamik] - Enviado informações do personagem
19:26:20 : [AeroDynamik] - Comando "/day "
19:26:20 : [AeroDynamik] - [Mensagem do servidor]> !#11 2
19:26:27 : [AeroDynamik] - O usuï¿½rio nï¿½o enviou o pacote de integridade de macaddress
19:27:03 : [AeroDynamik] - ADMIN5 Recebeu lParam (WndProc) como 32. Erro possível: 10053. Desconectando o usuário.
19:27:03 : [AeroDynamik] - 1 Personagem foi desconectado. Permaneceu 00:00:49 minutos online
19:27:21 : =========================== NOVA SESSÃO ==========================
Tentativa de logar na conta (ADMIN5) - IP: 84.123.38.2 Mac: (0B:A7:7A:4E:00:4C). ClientId: 1
19:27:21 : Usuário logou no jogo com clientId 1. - Servidor 2. Gold do banco: 1000000000
19:27:21 : [INFORMAÇÕES DO BANCO]
Gold: 1000000000
[ 80] - Andaluz_N[2370] [10 10 100 60 10 0]
[ 85] - Aranha[2360] [245 26 39 20 0 0]
[ 90] - Ração_de_Aranha[2420] [61 120 0 0 0 0]
[ 95] - Resto_de_Oriharucon[419] [61 10 0 0 0 0]
[100] - Resto_de_Lactolerium[420] [59 46 59 14 59 61]
[105] - Poeira_de_Lactolerium[413] [61 214 0 0 0 0]
[200] - Caixa_do_Andarilho[3479] [106 21 110 2 109 121]
[201] - Caixa_do_Andarilho[3479] [106 21 110 2 109 121]

19:27:26 : Solicitou ir ao mundo...
19:27:26 : Recebido pedido para entrar no jogo
19:27:26 : Recebido informação do personagem completa.
19:27:26 : [AeroDynamik] - [INFORMAÇÕES DA CONTA]
Personagem online: AeroDynamik
Gold atual: 501314672
Level atual: 399
Experiência atual: 4114840122
Evolução atual: Unknown
Tempo online até o momento: 00 dias e 00:00:05 horas
Posição atual: 2501x 1717y

Pontos NT: 0
Entradas Hall: 0
Info: 0
Soul: 0
Divina: 0/0/0 0:0:0
Sephira: 0/0/0 0:0:0
Saude: 0/0/0 0:0:0
Escritura: 0/0/0 0:0:0
Revigorante: 0/0/0 0:0:0
LastGuildKickout: 0/0/0 0:0:0
[EQUIPAMENTOS]
[00] - Rogue[31] [43 0 31 0 1 1]
[01] - Chapéu(A)[1643] [43 237 3 25 26 18]
[02] - Peitoral(A)[1646] [43 237 2 30 71 70]
[03] - Calça(A)[1649] [43 237 2 30 71 70]
[04] - Braçadeira(A)[1652] [43 237 54 18 72 30]
[05] - Botas(A)[1655] [43 237 73 30 74 18]
[06] - Arco_Guardião[3556] [43 9 2 36 0 0]
[08] - Brinco_de_Titã[592] [43 9 0 0 0 0]
[09] - Amuleto_de_Prata[551] [43 9 2 99 0 0]
[10] - Pedra_Espiritual[633] [43 9 0 0 0 0]
[11] - Ankh_da_Glória[663] [43 9 0 0 0 0]
[12] - Conjunto_Esqueleto[4153] [96 21 2 21 0 32]
[14] - Grifo_Sangrento[2386] [22 100 100 60 10 0]

[INVENTÁRIO]
[00] - Fada_Vermelha(3dias)[3902] [106 2 107 22 108 59]
[01] - Ultra_Poção_de_Mana[409] [61 47 0 0 0 0]
[02] - [S]Caixa_Poção_de_Cura[3322] [61 30 0 0 0 0]
[03] - Trombeta_Mágica[3330] [61 119 0 0 0 0]
[04] - Ração_de_Fenrir[2436] [61 5 0 0 0 0]
[05] - Fenrir[2376] [128 55 100 60 10 0]
[06] - Gema_da_Siren[658] [0 0 0 0 0 0]
[07] - Chapéu(M)[1342] [43 0 59 0 59 0]
[08] - Baú_de_Experiência[4140] [61 236 0 0 0 0]
[09] - Ração_de_Fenrir[2436] [61 5 0 0 0 0]
[10] - Chapéu(M)[1342] [43 1 60 4 59 0]
[11] - Luvas(M)[1501] [43 1 72 15 2 24]
[13] - Baú_de_Caça[4139] [61 236 0 0 0 0]
[14] - Frango_Assado[3314] [61 236 0 0 0 0]
[15] - Poeira_de_Lactolerium[413] [61 52 0 0 0 0]
[16] - Jóia_da_Absorção[3204] [61 7 0 0 0 0]
[17] - Jóia_da_Proteção[3205] [61 7 0 0 0 0]
[18] - Jóia_do_Poder[3206] [61 7 0 0 0 0]
[19] - Jóia_da_Precisão[3208] [61 7 0 0 0 0]
[60] - Bolsa_do_Andarilho[3467] [106 21 110 2 109 121]
[61] - Bolsa_do_Andarilho[3467] [106 21 110 2 109 121]
[63] - Marca_do_Assassino[547] [150 0 0 0 77 0]

[USUÁRIOS LOGADOS]
Nenhuma outra conta logada 

19:27:26 : [AeroDynamik] - Personagem AeroDynamik enviado ao mundo 2501x 1717y - Canal 2 - Cash da conta: 15918. PowerLevel: 4127
19:27:26 : [AeroDynamik] - Gold atual: 501314672. Classe: 3 Evolução: 0. Experiência: 4114840122. Nível: 399. Info: 0. GuildID: 0. CP: 75. Pontos de Contribuição: 0. Limite: 0
19:27:26 : [AeroDynamik] - Logou no personagem AeroDynamik com poção divina ativo. Validade: 21/2/2021 9:16:26
19:27:26 : [AeroDynamik] - Logou no personagem AeroDynamik com frango ativo. Tempo: 1120
19:27:26 : [AeroDynamik] - Logou no personagem AeroDynamik com baú de experiência ativo. Tempo: 2300
19:27:26 : [AeroDynamik] - [Mensagem do servidor]> O Kefra foi derrotado
19:27:26 : [AeroDynamik] - Enviado informações do personagem
19:27:27 : [AeroDynamik] - Comando "/day "
19:27:27 : [AeroDynamik] - [Mensagem do servidor]> !#11 2
19:27:39 : [AeroDynamik] - O usuï¿½rio nï¿½o enviou o pacote de integridade de macaddress
19:28:16 : [AeroDynamik] - ADMIN5 Recebeu lParam (WndProc) como 32. Erro possível: 10053. Desconectando o usuário.
19:28:16 : [AeroDynamik] - 1 Personagem foi desconectado. Permaneceu 00:00:54 minutos online
19:28:32 : =========================== NOVA SESSÃO ==========================
Tentativa de logar na conta (ADMIN5) - IP: 84.123.38.2 Mac: (0B:A7:7A:4E:00:4C). ClientId: 2
19:28:32 : Usuário logou no jogo com clientId 2. - Servidor 2. Gold do banco: 1000000000
19:28:32 : [INFORMAÇÕES DO BANCO]
Gold: 1000000000
[ 80] - Andaluz_N[2370] [10 10 100 60 10 0]
[ 85] - Aranha[2360] [245 26 39 20 0 0]
[ 90] - Ração_de_Aranha[2420] [61 120 0 0 0 0]
[ 95] - Resto_de_Oriharucon[419] [61 10 0 0 0 0]
[100] - Resto_de_Lactolerium[420] [59 46 59 14 59 61]
[105] - Poeira_de_Lactolerium[413] [61 214 0 0 0 0]
[200] - Caixa_do_Andarilho[3479] [106 21 110 2 109 121]
[201] - Caixa_do_Andarilho[3479] [106 21 110 2 109 121]

19:28:40 : Solicitou ir ao mundo...
19:28:40 : Recebido pedido para entrar no jogo
19:28:40 : Recebido informação do personagem completa.
19:28:40 : [AeroDynamik] - [INFORMAÇÕES DA CONTA]
Personagem online: AeroDynamik
Gold atual: 501314672
Level atual: 399
Experiência atual: 4114840122
Evolução atual: Unknown
Tempo online até o momento: 00 dias e 00:00:07 horas
Posição atual: 2507x 1720y

Pontos NT: 0
Entradas Hall: 0
Info: 0
Soul: 0
Divina: 0/0/0 0:0:0
Sephira: 0/0/0 0:0:0
Saude: 0/0/0 0:0:0
Escritura: 0/0/0 0:0:0
Revigorante: 0/0/0 0:0:0
LastGuildKickout: 0/0/0 0:0:0
[EQUIPAMENTOS]
[00] - Rogue[31] [43 0 31 0 1 1]
[01] - Chapéu(A)[1643] [43 237 3 25 26 18]
[02] - Peitoral(A)[1646] [43 237 2 30 71 70]
[03] - Calça(A)[1649] [43 237 2 30 71 70]
[04] - Braçadeira(A)[1652] [43 237 54 18 72 30]
[05] - Botas(A)[1655] [43 237 73 30 74 18]
[06] - Arco_Guardião[3556] [43 9 2 36 0 0]
[08] - Brinco_de_Titã[592] [43 9 0 0 0 0]
[09] - Amuleto_de_Prata[551] [43 9 2 99 0 0]
[10] - Pedra_Espiritual[633] [43 9 0 0 0 0]
[11] - Ankh_da_Glória[663] [43 9 0 0 0 0]
[12] - Conjunto_Esqueleto[4153] [96 21 2 21 0 32]
[14] - Grifo_Sangrento[2386] [22 100 100 60 10 0]

[INVENTÁRIO]
[00] - Fada_Vermelha(3dias)[3902] [106 2 107 22 108 59]
[01] - Ultra_Poção_de_Mana[409] [61 47 0 0 0 0]
[02] - [S]Caixa_Poção_de_Cura[3322] [61 30 0 0 0 0]
[03] - Trombeta_Mágica[3330] [61 119 0 0 0 0]
[04] - Ração_de_Fenrir[2436] [61 5 0 0 0 0]
[05] - Fenrir[2376] [128 55 100 60 10 0]
[06] - Gema_da_Siren[658] [0 0 0 0 0 0]
[07] - Chapéu(M)[1342] [43 0 59 0 59 0]
[08] - Baú_de_Experiência[4140] [61 236 0 0 0 0]
[09] - Ração_de_Fenrir[2436] [61 5 0 0 0 0]
[10] - Chapéu(M)[1342] [43 1 60 4 59 0]
[11] - Luvas(M)[1501] [43 1 72 15 2 24]
[13] - Baú_de_Caça[4139] [61 236 0 0 0 0]
[14] - Frango_Assado[3314] [61 236 0 0 0 0]
[15] - Poeira_de_Lactolerium[413] [61 52 0 0 0 0]
[16] - Jóia_da_Absorção[3204] [61 7 0 0 0 0]
[17] - Jóia_da_Proteção[3205] [61 7 0 0 0 0]
[18] - Jóia_do_Poder[3206] [61 7 0 0 0 0]
[19] - Jóia_da_Precisão[3208] [61 7 0 0 0 0]
[60] - Bolsa_do_Andarilho[3467] [106 21 110 2 109 121]
[61] - Bolsa_do_Andarilho[3467] [106 21 110 2 109 121]
[63] - Marca_do_Assassino[547] [150 0 0 0 77 0]

[USUÁRIOS LOGADOS]
Nenhuma outra conta logada 

19:28:40 : [AeroDynamik] - Personagem AeroDynamik enviado ao mundo 2507x 1720y - Canal 2 - Cash da conta: 15918. PowerLevel: 4127
19:28:40 : [AeroDynamik] - Gold atual: 501314672. Classe: 3 Evolução: 0. Experiência: 4114840122. Nível: 399. Info: 0. GuildID: 0. CP: 75. Pontos de Contribuição: 0. Limite: 0
19:28:40 : [AeroDynamik] - Logou no personagem AeroDynamik com poção divina ativo. Validade: 21/2/2021 9:16:26
19:28:40 : [AeroDynamik] - Logou no personagem AeroDynamik com frango ativo. Tempo: 1114
19:28:40 : [AeroDynamik] - Logou no personagem AeroDynamik com baú de experiência ativo. Tempo: 2294
19:28:40 : [AeroDynamik] - [Mensagem do servidor]> O Kefra foi derrotado
19:28:40 : [AeroDynamik] - Enviado informações do personagem
19:28:41 : [AeroDynamik] - Comando "/day "
19:28:42 : [AeroDynamik] - [Mensagem do servidor]> !#11 2
19:28:51 : [AeroDynamik] - O usuï¿½rio nï¿½o enviou o pacote de integridade de macaddress
19:29:50 : [AeroDynamik] - ADMIN5 Recebeu lParam (WndProc) como 32. Erro possível: 10053. Desconectando o usuário.
19:29:50 : [AeroDynamik] - 2 Personagem foi desconectado. Permaneceu 00:01:16 minutos online
19:30:08 : =========================== NOVA SESSÃO ==========================
Tentativa de logar na conta (ADMIN5) - IP: 84.123.38.2 Mac: (0B:A7:7A:4E:00:4C). ClientId: 1
19:30:08 : Usuário logou no jogo com clientId 1. - Servidor 2. Gold do banco: 1000000000
19:30:08 : [INFORMAÇÕES DO BANCO]
Gold: 1000000000
[ 80] - Andaluz_N[2370] [10 10 100 60 10 0]
[ 85] - Aranha[2360] [245 26 39 20 0 0]
[ 90] - Ração_de_Aranha[2420] [61 120 0 0 0 0]
[ 95] - Resto_de_Oriharucon[419] [61 10 0 0 0 0]
[100] - Resto_de_Lactolerium[420] [59 46 59 14 59 61]
[105] - Poeira_de_Lactolerium[413] [61 214 0 0 0 0]
[200] - Caixa_do_Andarilho[3479] [106 21 110 2 109 121]
[201] - Caixa_do_Andarilho[3479] [106 21 110 2 109 121]

19:30:15 : Solicitou ir ao mundo...
19:30:15 : Recebido pedido para entrar no jogo
19:30:15 : Recebido informação do personagem completa.
19:30:15 : [AeroDynamik] - [INFORMAÇÕES DA CONTA]
Personagem online: AeroDynamik
Gold atual: 501314672
Level atual: 399
Experiência atual: 4114840122
Evolução atual: Unknown
Tempo online até o momento: 00 dias e 00:00:07 horas
Posição atual: 2506x 1716y

Pontos NT: 0
Entradas Hall: 0
Info: 0
Soul: 0
Divina: 0/0/0 0:0:0
Sephira: 0/0/0 0:0:0
Saude: 0/0/0 0:0:0
Escritura: 0/0/0 0:0:0
Revigorante: 0/0/0 0:0:0
LastGuildKickout: 0/0/0 0:0:0
[EQUIPAMENTOS]
[00] - Rogue[31] [43 0 31 0 1 1]
[01] - Chapéu(A)[1643] [43 237 3 25 26 18]
[02] - Peitoral(A)[1646] [43 237 2 30 71 70]
[03] - Calça(A)[1649] [43 237 2 30 71 70]
[04] - Braçadeira(A)[1652] [43 237 54 18 72 30]
[05] - Botas(A)[1655] [43 237 73 30 74 18]
[06] - Arco_Guardião[3556] [43 9 2 36 0 0]
[08] - Brinco_de_Titã[592] [43 9 0 0 0 0]
[09] - Amuleto_de_Prata[551] [43 9 2 99 0 0]
[10] - Pedra_Espiritual[633] [43 9 0 0 0 0]
[11] - Ankh_da_Glória[663] [43 9 0 0 0 0]
[12] - Conjunto_Esqueleto[4153] [96 21 2 21 0 32]
[14] - Grifo_Sangrento[2386] [22 100 100 60 10 0]

[INVENTÁRIO]
[00] - Fada_Vermelha(3dias)[3902] [106 2 107 22 108 59]
[01] - Ultra_Poção_de_Mana[409] [61 47 0 0 0 0]
[02] - [S]Caixa_Poção_de_Cura[3322] [61 30 0 0 0 0]
[03] - Trombeta_Mágica[3330] [61 119 0 0 0 0]
[04] - Ração_de_Fenrir[2436] [61 5 0 0 0 0]
[05] - Fenrir[2376] [128 55 100 60 10 0]
[06] - Gema_da_Siren[658] [0 0 0 0 0 0]
[07] - Chapéu(M)[1342] [43 0 59 0 59 0]
[08] - Baú_de_Experiência[4140] [61 236 0 0 0 0]
[09] - Ração_de_Fenrir[2436] [61 5 0 0 0 0]
[10] - Chapéu(M)[1342] [43 1 60 4 59 0]
[11] - Luvas(M)[1501] [43 1 72 15 2 24]
[13] - Baú_de_Caça[4139] [61 236 0 0 0 0]
[14] - Frango_Assado[3314] [61 236 0 0 0 0]
[15] - Poeira_de_Lactolerium[413] [61 52 0 0 0 0]
[16] - Jóia_da_Absorção[3204] [61 7 0 0 0 0]
[17] - Jóia_da_Proteção[3205] [61 7 0 0 0 0]
[18] - Jóia_do_Poder[3206] [61 7 0 0 0 0]
[19] - Jóia_da_Precisão[3208] [61 7 0 0 0 0]
[60] - Bolsa_do_Andarilho[3467] [106 21 110 2 109 121]
[61] - Bolsa_do_Andarilho[3467] [106 21 110 2 109 121]
[63] - Marca_do_Assassino[547] [150 0 0 0 77 0]

[USUÁRIOS LOGADOS]
Nenhuma outra conta logada 

19:30:15 : [AeroDynamik] - Personagem AeroDynamik enviado ao mundo 2506x 1716y - Canal 2 - Cash da conta: 15918. PowerLevel: 4127
19:30:15 : [AeroDynamik] - Gold atual: 501314672. Classe: 3 Evolução: 0. Experiência: 4114840122. Nível: 399. Info: 0. GuildID: 0. CP: 75. Pontos de Contribuição: 0. Limite: 0
19:30:15 : [AeroDynamik] - Logou no personagem AeroDynamik com poção divina ativo. Validade: 21/2/2021 9:16:26
19:30:15 : [AeroDynamik] - Logou no personagem AeroDynamik com frango ativo. Tempo: 1106
19:30:15 : [AeroDynamik] - Logou no personagem AeroDynamik com baú de experiência ativo. Tempo: 2286
19:30:15 : [AeroDynamik] - [Mensagem do servidor]> O Kefra foi derrotado
19:30:15 : [AeroDynamik] - Enviado informações do personagem
19:30:16 : [AeroDynamik] - Comando "/day "
19:30:16 : [AeroDynamik] - [Mensagem do servidor]> !#11 2
19:30:27 : [AeroDynamik] - O usuï¿½rio nï¿½o enviou o pacote de integridade de macaddress
19:30:59 : [AeroDynamik] - ADMIN5 Recebeu lParam (WndProc) como 32. Erro possível: 10053. Desconectando o usuário.
19:30:59 : [AeroDynamik] - 1 Personagem foi desconectado. Permaneceu 00:00:51 minutos online
19:31:13 : =========================== NOVA SESSÃO ==========================
Tentativa de logar na conta (ADMIN5) - IP: 84.123.38.2 Mac: (0B:A7:7A:4E:00:4C). ClientId: 1
19:31:13 : Usuário logou no jogo com clientId 1. - Servidor 2. Gold do banco: 1000000000
19:31:13 : [INFORMAÇÕES DO BANCO]
Gold: 1000000000
[ 80] - Andaluz_N[2370] [10 10 100 60 10 0]
[ 85] - Aranha[2360] [245 26 39 20 0 0]
[ 90] - Ração_de_Aranha[2420] [61 120 0 0 0 0]
[ 95] - Resto_de_Oriharucon[419] [61 10 0 0 0 0]
[100] - Resto_de_Lactolerium[420] [59 46 59 14 59 61]
[105] - Poeira_de_Lactolerium[413] [61 214 0 0 0 0]
[200] - Caixa_do_Andarilho[3479] [106 21 110 2 109 121]
[201] - Caixa_do_Andarilho[3479] [106 21 110 2 109 121]

19:31:18 : Solicitou ir ao mundo...
19:31:18 : Recebido pedido para entrar no jogo
19:31:18 : Recebido informação do personagem completa.
19:31:18 : [AeroDynamik] - [INFORMAÇÕES DA CONTA]
Personagem online: AeroDynamik
Gold atual: 501314672
Level atual: 399
Experiência atual: 4114840122
Evolução atual: Unknown
Tempo online até o momento: 00 dias e 00:00:04 horas
Posição atual: 2495x 1717y

Pontos NT: 0
Entradas Hall: 0
Info: 0
Soul: 0
Divina: 0/0/0 0:0:0
Sephira: 0/0/0 0:0:0
Saude: 0/0/0 0:0:0
Escritura: 0/0/0 0:0:0
Revigorante: 0/0/0 0:0:0
LastGuildKickout: 0/0/0 0:0:0
[EQUIPAMENTOS]
[00] - Rogue[31] [43 0 31 0 1 1]
[01] - Chapéu(A)[1643] [43 237 3 25 26 18]
[02] - Peitoral(A)[1646] [43 237 2 30 71 70]
[03] - Calça(A)[1649] [43 237 2 30 71 70]
[04] - Braçadeira(A)[1652] [43 237 54 18 72 30]
[05] - Botas(A)[1655] [43 237 73 30 74 18]
[06] - Arco_Guardião[3556] [43 9 2 36 0 0]
[08] - Brinco_de_Titã[592] [43 9 0 0 0 0]
[09] - Amuleto_de_Prata[551] [43 9 2 99 0 0]
[10] - Pedra_Espiritual[633] [43 9 0 0 0 0]
[11] - Ankh_da_Glória[663] [43 9 0 0 0 0]
[12] - Conjunto_Esqueleto[4153] [96 21 2 21 0 32]
[14] - Grifo_Sangrento[2386] [22 100 100 60 10 0]

[INVENTÁRIO]
[00] - Fada_Vermelha(3dias)[3902] [106 2 107 22 108 59]
[01] - Ultra_Poção_de_Mana[409] [61 47 0 0 0 0]
[02] - [S]Caixa_Poção_de_Cura[3322] [61 30 0 0 0 0]
[03] - Trombeta_Mágica[3330] [61 119 0 0 0 0]
[04] - Ração_de_Fenrir[2436] [61 5 0 0 0 0]
[05] - Fenrir[2376] [128 55 100 60 10 0]
[06] - Gema_da_Siren[658] [0 0 0 0 0 0]
[07] - Chapéu(M)[1342] [43 0 59 0 59 0]
[08] - Baú_de_Experiência[4140] [61 236 0 0 0 0]
[09] - Ração_de_Fenrir[2436] [61 5 0 0 0 0]
[10] - Chapéu(M)[1342] [43 1 60 4 59 0]
[11] - Luvas(M)[1501] [43 1 72 15 2 24]
[13] - Baú_de_Caça[4139] [61 236 0 0 0 0]
[14] - Frango_Assado[3314] [61 236 0 0 0 0]
[15] - Poeira_de_Lactolerium[413] [61 52 0 0 0 0]
[16] - Jóia_da_Absorção[3204] [61 7 0 0 0 0]
[17] - Jóia_da_Proteção[3205] [61 7 0 0 0 0]
[18] - Jóia_do_Poder[3206] [61 7 0 0 0 0]
[19] - Jóia_da_Precisão[3208] [61 7 0 0 0 0]
[60] - Bolsa_do_Andarilho[3467] [106 21 110 2 109 121]
[61] - Bolsa_do_Andarilho[3467] [106 21 110 2 109 121]
[63] - Marca_do_Assassino[547] [150 0 0 0 77 0]

[USUÁRIOS LOGADOS]
Nenhuma outra conta logada 

19:31:18 : [AeroDynamik] - Personagem AeroDynamik enviado ao mundo 2495x 1717y - Canal 2 - Cash da conta: 15918. PowerLevel: 4127
19:31:18 : [AeroDynamik] - Gold atual: 501314672. Classe: 3 Evolução: 0. Experiência: 4114840122. Nível: 399. Info: 0. GuildID: 0. CP: 75. Pontos de Contribuição: 0. Limite: 0
19:31:18 : [AeroDynamik] - Logou no personagem AeroDynamik com poção divina ativo. Validade: 21/2/2021 9:16:26
19:31:18 : [AeroDynamik] - Logou no personagem AeroDynamik com frango ativo. Tempo: 1100
19:31:18 : [AeroDynamik] - Logou no personagem AeroDynamik com baú de experiência ativo. Tempo: 2280
19:31:18 : [AeroDynamik] - [Mensagem do servidor]> O Kefra foi derrotado
19:31:18 : [AeroDynamik] - Enviado informações do personagem
19:31:20 : [AeroDynamik] - Comando "/day "
19:31:20 : [AeroDynamik] - [Mensagem do servidor]> !#11 2
19:31:27 : [AeroDynamik] - O usuï¿½rio nï¿½o enviou o pacote de integridade de macaddress
19:32:04 : [AeroDynamik] - ADMIN5 Recebeu lParam (WndProc) como 32. Erro possível: 10053. Desconectando o usuário.
19:32:04 : [AeroDynamik] - 1 Personagem foi desconectado. Permaneceu 00:00:50 minutos online
19:32:17 : =========================== NOVA SESSÃO ==========================
Tentativa de logar na conta (ADMIN5) - IP: 84.123.38.2 Mac: (0B:A7:7A:4E:00:4C). ClientId: 1
19:32:17 : Usuário logou no jogo com clientId 1. - Servidor 2. Gold do banco: 1000000000
19:32:17 : [INFORMAÇÕES DO BANCO]
Gold: 1000000000
[ 80] - Andaluz_N[2370] [10 10 100 60 10 0]
[ 85] - Aranha[2360] [245 26 39 20 0 0]
[ 90] - Ração_de_Aranha[2420] [61 120 0 0 0 0]
[ 95] - Resto_de_Oriharucon[419] [61 10 0 0 0 0]
[100] - Resto_de_Lactolerium[420] [59 46 59 14 59 61]
[105] - Poeira_de_Lactolerium[413] [61 214 0 0 0 0]
[200] - Caixa_do_Andarilho[3479] [106 21 110 2 109 121]
[201] - Caixa_do_Andarilho[3479] [106 21 110 2 109 121]

19:32:23 : Solicitou ir ao mundo...
19:32:23 : Recebido pedido para entrar no jogo
19:32:23 : Recebido informação do personagem completa.
19:32:23 : [AeroDynamik] - [INFORMAÇÕES DA CONTA]
Personagem online: AeroDynamik
Gold atual: 501314672
Level atual: 399
Experiência atual: 4114840122
Evolução atual: Unknown
Tempo online até o momento: 00 dias e 00:00:05 horas
Posição atual: 2498x 1709y

Pontos NT: 0
Entradas Hall: 0
Info: 0
Soul: 0
Divina: 0/0/0 0:0:0
Sephira: 0/0/0 0:0:0
Saude: 0/0/0 0:0:0
Escritura: 0/0/0 0:0:0
Revigorante: 0/0/0 0:0:0
LastGuildKickout: 0/0/0 0:0:0
[EQUIPAMENTOS]
[00] - Rogue[31] [43 0 31 0 1 1]
[01] - Chapéu(A)[1643] [43 237 3 25 26 18]
[02] - Peitoral(A)[1646] [43 237 2 30 71 70]
[03] - Calça(A)[1649] [43 237 2 30 71 70]
[04] - Braçadeira(A)[1652] [43 237 54 18 72 30]
[05] - Botas(A)[1655] [43 237 73 30 74 18]
[06] - Arco_Guardião[3556] [43 9 2 36 0 0]
[08] - Brinco_de_Titã[592] [43 9 0 0 0 0]
[09] - Amuleto_de_Prata[551] [43 9 2 99 0 0]
[10] - Pedra_Espiritual[633] [43 9 0 0 0 0]
[11] - Ankh_da_Glória[663] [43 9 0 0 0 0]
[12] - Conjunto_Esqueleto[4153] [96 21 2 21 0 32]
[14] - Grifo_Sangrento[2386] [22 100 100 60 10 0]

[INVENTÁRIO]
[00] - Fada_Vermelha(3dias)[3902] [106 2 107 22 108 59]
[01] - Ultra_Poção_de_Mana[409] [61 47 0 0 0 0]
[02] - [S]Caixa_Poção_de_Cura[3322] [61 30 0 0 0 0]
[03] - Trombeta_Mágica[3330] [61 119 0 0 0 0]
[04] - Ração_de_Fenrir[2436] [61 5 0 0 0 0]
[05] - Fenrir[2376] [128 55 100 60 10 0]
[06] - Gema_da_Siren[658] [0 0 0 0 0 0]
[07] - Chapéu(M)[1342] [43 0 59 0 59 0]
[08] - Baú_de_Experiência[4140] [61 236 0 0 0 0]
[09] - Ração_de_Fenrir[2436] [61 5 0 0 0 0]
[10] - Chapéu(M)[1342] [43 1 60 4 59 0]
[11] - Luvas(M)[1501] [43 1 72 15 2 24]
[13] - Baú_de_Caça[4139] [61 236 0 0 0 0]
[14] - Frango_Assado[3314] [61 236 0 0 0 0]
[15] - Poeira_de_Lactolerium[413] [61 52 0 0 0 0]
[16] - Jóia_da_Absorção[3204] [61 7 0 0 0 0]
[17] - Jóia_da_Proteção[3205] [61 7 0 0 0 0]
[18] - Jóia_do_Poder[3206] [61 7 0 0 0 0]
[19] - Jóia_da_Precisão[3208] [61 7 0 0 0 0]
[60] - Bolsa_do_Andarilho[3467] [106 21 110 2 109 121]
[61] - Bolsa_do_Andarilho[3467] [106 21 110 2 109 121]
[63] - Marca_do_Assassino[547] [150 0 0 0 77 0]

[USUÁRIOS LOGADOS]
Nenhuma outra conta logada 

19:32:23 : [AeroDynamik] - Personagem AeroDynamik enviado ao mundo 2498x 1709y - Canal 2 - Cash da conta: 15918. PowerLevel: 4127
19:32:23 : [AeroDynamik] - Gold atual: 501314672. Classe: 3 Evolução: 0. Experiência: 4114840122. Nível: 399. Info: 0. GuildID: 0. CP: 75. Pontos de Contribuição: 0. Limite: 0
19:32:23 : [AeroDynamik] - Logou no personagem AeroDynamik com poção divina ativo. Validade: 21/2/2021 9:16:26
19:32:23 : [AeroDynamik] - Logou no personagem AeroDynamik com frango ativo. Tempo: 1094
19:32:23 : [AeroDynamik] - Logou no personagem AeroDynamik com baú de experiência ativo. Tempo: 2274
19:32:23 : [AeroDynamik] - [Mensagem do servidor]> O Kefra foi derrotado
19:32:23 : [AeroDynamik] - Enviado informações do personagem
19:32:24 : [AeroDynamik] - Comando "/day "
19:32:24 : [AeroDynamik] - [Mensagem do servidor]> !#11 2
19:32:39 : [AeroDynamik] - O usuï¿½rio nï¿½o enviou o pacote de integridade de macaddress
19:33:45 : [AeroDynamik] - ADMIN5 Recebeu lParam (WndProc) como 32. Erro possível: 10053. Desconectando o usuário.
19:33:45 : [AeroDynamik] - 1 Personagem foi desconectado. Permaneceu 00:01:26 minutos online
19:34:05 : =========================== NOVA SESSÃO ==========================
Tentativa de logar na conta (ADMIN5) - IP: 84.123.38.2 Mac: (0B:A7:7A:4E:00:4C). ClientId: 1
19:34:05 : Usuário logou no jogo com clientId 1. - Servidor 2. Gold do banco: 1000000000
19:34:05 : [INFORMAÇÕES DO BANCO]
Gold: 1000000000
[ 80] - Andaluz_N[2370] [10 10 100 60 10 0]
[ 85] - Aranha[2360] [245 26 39 20 0 0]
[ 90] - Ração_de_Aranha[2420] [61 120 0 0 0 0]
[ 95] - Resto_de_Oriharucon[419] [61 10 0 0 0 0]
[100] - Resto_de_Lactolerium[420] [59 46 59 14 59 61]
[105] - Poeira_de_Lactolerium[413] [61 214 0 0 0 0]
[200] - Caixa_do_Andarilho[3479] [106 21 110 2 109 121]
[201] - Caixa_do_Andarilho[3479] [106 21 110 2 109 121]

19:34:10 : Solicitou ir ao mundo...
19:34:10 : Recebido pedido para entrar no jogo
19:34:10 : Recebido informação do personagem completa.
19:34:10 : [AeroDynamik] - [INFORMAÇÕES DA CONTA]
Personagem online: AeroDynamik
Gold atual: 501314672
Level atual: 399
Experiência atual: 4114840122
Evolução atual: Unknown
Tempo online até o momento: 00 dias e 00:00:05 horas
Posição atual: 2506x 1717y

Pontos NT: 0
Entradas Hall: 0
Info: 0
Soul: 0
Divina: 0/0/0 0:0:0
Sephira: 0/0/0 0:0:0
Saude: 0/0/0 0:0:0
Escritura: 0/0/0 0:0:0
Revigorante: 0/0/0 0:0:0
LastGuildKickout: 0/0/0 0:0:0
[EQUIPAMENTOS]