
13:58:00 : =========================== NOVA SESSÃO ==========================
Tentativa de logar na conta (ADMIN5) - IP: 84.123.38.2 Mac: (0B:A7:7A:4E:00:4C). ClientId: 4
13:58:00 : Usuário logou no jogo com clientId 4. - Servidor 2. Gold do banco: 1000000000
13:58:00 : [INFORMAÇÕES DO BANCO]
Gold: 1000000000
[  0] - Arco_Guardião[3556] [43 9 2 36 0 0]
[ 80] - Andaluz_N[2370] [10 10 100 60 10 0]
[ 85] - Aranha[2360] [245 26 39 20 0 0]
[ 90] - Ração_de_Aranha[2420] [61 120 0 0 0 0]
[ 95] - Resto_de_Oriharucon[419] [61 10 0 0 0 0]
[100] - Resto_de_Lactolerium[420] [59 46 59 14 59 61]
[105] - Poeira_de_Lactolerium[413] [61 214 0 0 0 0]
[200] - Caixa_do_Andarilho[3479] [106 21 110 2 109 121]
[201] - Caixa_do_Andarilho[3479] [106 21 110 2 109 121]

13:58:14 : Solicitou ir ao mundo...
13:58:14 : Recebido pedido para entrar no jogo
13:58:14 : Recebido informação do personagem completa.
13:58:14 : [AeroDynamik] - [INFORMAÇÕES DA CONTA]
Personagem online: AeroDynamik
Gold atual: 0
Level atual: 399
Experiência atual: 4114860243
Evolução atual: Unknown
Tempo online até o momento: 00 dias e 00:00:14 horas
Posição atual: 2091x 2097y

Pontos NT: 0
Entradas Hall: 0
Info: 0
Soul: 0
Divina: 0/0/0 0:0:0
Sephira: 0/0/0 0:0:0
Saude: 0/0/0 0:0:0
Escritura: 0/0/0 0:0:0
Revigorante: 0/0/0 0:0:0
LastGuildKickout: 0/0/0 0:0:0
[EQUIPAMENTOS]
[00] - Rogue[31] [43 0 31 0 1 1]
[01] - Chapéu(A)[1643] [43 237 3 25 26 18]
[02] - Peitoral(A)[1646] [43 237 2 30 71 70]
[03] - Calça(A)[1649] [43 237 2 30 71 70]
[04] - Braçadeira(A)[1652] [43 237 54 18 72 30]
[05] - Botas(A)[1655] [43 237 73 30 74 18]
[06] - Arco[825] [2 45 43 1 0 0]
[08] - Brinco_de_Titã[592] [43 9 0 0 0 0]
[09] - Amuleto_de_Prata[551] [43 9 2 99 0 0]
[10] - Pedra_Espiritual[633] [43 9 0 0 0 0]
[11] - Ankh_da_Glória[663] [43 9 0 0 0 0]
[12] - Conjunto_Esqueleto[4153] [96 21 2 21 0 32]
[15] - Manto_do_Guerreiro[543] [0 0 0 0 0 0]

[INVENTÁRIO]
[00] - Fada_Vermelha(3dias)[3902] [106 2 107 22 108 59]
[01] - Barra_de_Prata_(1Bi)[4011] [61 120 0 0 0 0]
[02] - [S]Caixa_Poção_de_Cura[3322] [61 26 0 0 0 0]
[03] - Trombeta_Mágica[3330] [61 119 0 0 0 0]
[04] - Ração_de_Fenrir[2436] [61 5 0 0 0 0]
[05] - Fenrir[2376] [128 55 100 60 10 0]
[06] - Gema_da_Siren[658] [0 0 0 0 0 0]
[07] - Chapéu(M)[1342] [43 0 59 0 59 0]
[08] - Baú_de_Experiência[4140] [61 235 0 0 0 0]
[09] - Ração_de_Fenrir[2436] [61 5 0 0 0 0]
[10] - Chapéu(M)[1342] [43 1 60 4 59 0]
[11] - Luvas(M)[1501] [43 1 72 15 2 24]
[12] - Pedido_de_Caça(Kult)[3435] [61 9 0 0 0 0]
[13] - Baú_de_Caça[4139] [61 236 0 0 0 0]
[14] - Frango_Assado[3314] [61 235 0 0 0 0]
[15] - Calça(A)[1809] [43 0 71 50 59 0]
[16] - Jóia_da_Absorção[3204] [61 6 0 0 0 0]
[17] - Jóia_da_Proteção[3205] [61 6 0 0 0 0]
[18] - Jóia_do_Poder[3206] [61 6 0 0 0 0]
[19] - Jóia_da_Precisão[3208] [61 6 0 0 0 0]
[20] - Armadura(A)[1805] [43 0 71 40 60 4]
[21] - Jaqueta(N)[1554] [43 0 71 30 59 0]
[22] - Chapéu(N)[1551] [43 0 26 15 59 0]
[23] - Pedaço_do_Círculo_Divino[447] [59 59 59 122 59 77]
[24] - Dardo[877] [43 0 2 18 2 9]
[25] - Poeira_de_Lactolerium[413] [61 25 0 0 0 0]
[26] - Grifo_Sangrento[2386] [116 97 100 60 10 0]
[27] - Moeda_de_Bronze(50Mi)[4029] [61 110 0 0 0 0]
[28] - Pesadelo_(N/Grupo)[3324] [61 198 0 0 0 0]
[60] - Bolsa_do_Andarilho[3467] [106 21 110 2 109 121]
[61] - Bolsa_do_Andarilho[3467] [106 21 110 2 109 121]
[63] - Marca_do_Assassino[547] [150 0 0 0 77 0]

[USUÁRIOS LOGADOS]
Nenhuma outra conta logada 

13:58:14 : [AeroDynamik] - Personagem AeroDynamik enviado ao mundo 2091x 2097y - Canal 2 - Cash da conta: 15918. PowerLevel: 1697
13:58:14 : [AeroDynamik] - Gold atual: 0. Classe: 3 Evolução: 0. Experiência: 4114860243. Nível: 399. Info: 0. GuildID: 0. CP: 75. Pontos de Contribuição: 0. Limite: 0
13:58:14 : [AeroDynamik] - Logou no personagem AeroDynamik com poção divina ativo. Validade: 21/2/2021 9:16:26
13:58:14 : [AeroDynamik] - Logou no personagem AeroDynamik com frango ativo. Tempo: 1406
13:58:14 : [AeroDynamik] - Logou no personagem AeroDynamik com baú de experiência ativo. Tempo: 2572
13:58:14 : [AeroDynamik] - Resetado a contagem de entradas água! Day: 38-39. Total: 0
13:58:14 : [AeroDynamik] - [Mensagem do servidor]> A guild [Teste123] derrotou Kefra
13:58:14 : [AeroDynamik] - Enviado informações do personagem
13:58:16 : [AeroDynamik] - Comando "/day "
13:58:16 : [AeroDynamik] - [Mensagem do servidor]> !#11 2
13:58:22 : [AeroDynamik] - O usuï¿½rio nï¿½o enviou o pacote de integridade de macaddress
13:59:08 : [AeroDynamik] - Clicado no NPC [Troca1]. Face 60. Race: 2. GenerateId: 4786. Posição do usuário: 2104x 2107y. Posição do NPC: 2110x 2110y
13:59:20 : [AeroDynamik] - Personagem deu personagem
13:59:23 : Solicitou ir ao mundo...
13:59:23 : Recebido pedido para entrar no jogo
13:59:23 : Recebido informação do personagem completa.
13:59:23 : [AeroDynamik] - [INFORMAÇÕES DA CONTA]
Personagem online: AeroDynamik
Gold atual: 0
Level atual: 399
Experiência atual: 4114860243
Evolução atual: Unknown
Tempo online até o momento: 00 dias e 00:01:21 horas
Posição atual: 2096x 2101y

Pontos NT: 0
Entradas Hall: 0
Info: 0
Soul: 0
Divina: 0/0/0 0:0:0
Sephira: 0/0/0 0:0:0
Saude: 0/0/0 0:0:0
Escritura: 0/0/0 0:0:0
Revigorante: 0/0/0 0:0:0
LastGuildKickout: 0/0/0 0:0:0
[EQUIPAMENTOS]
[00] - Rogue[31] [43 0 31 0 1 1]
[01] - Chapéu(A)[1643] [43 237 3 25 26 18]
[02] - Peitoral(A)[1646] [43 237 2 30 71 70]
[03] - Calça(A)[1649] [43 237 2 30 71 70]
[04] - Braçadeira(A)[1652] [43 237 54 18 72 30]
[05] - Botas(A)[1655] [43 237 73 30 74 18]
[06] - Arco[825] [2 45 43 1 0 0]
[08] - Brinco_de_Titã[592] [43 9 0 0 0 0]
[09] - Amuleto_de_Prata[551] [43 9 2 99 0 0]
[10] - Pedra_Espiritual[633] [43 9 0 0 0 0]
[11] - Ankh_da_Glória[663] [43 9 0 0 0 0]
[12] - Conjunto_Esqueleto[4153] [96 21 2 21 0 32]
[15] - Manto_do_Guerreiro[543] [0 0 0 0 0 0]

[INVENTÁRIO]
[00] - Fada_Vermelha(3dias)[3902] [106 2 107 22 108 59]
[01] - Barra_de_Prata_(1Bi)[4011] [61 120 0 0 0 0]
[02] - [S]Caixa_Poção_de_Cura[3322] [61 26 0 0 0 0]
[03] - Trombeta_Mágica[3330] [61 119 0 0 0 0]
[04] - Ração_de_Fenrir[2436] [61 5 0 0 0 0]
[05] - Fenrir[2376] [128 55 100 60 10 0]
[06] - Gema_da_Siren[658] [0 0 0 0 0 0]
[07] - Chapéu(M)[1342] [43 0 59 0 59 0]
[08] - Baú_de_Experiência[4140] [61 235 0 0 0 0]
[09] - Ração_de_Fenrir[2436] [61 5 0 0 0 0]
[10] - Chapéu(M)[1342] [43 1 60 4 59 0]
[11] - Luvas(M)[1501] [43 1 72 15 2 24]
[12] - Pedido_de_Caça(Kult)[3435] [61 9 0 0 0 0]
[13] - Baú_de_Caça[4139] [61 236 0 0 0 0]
[14] - Frango_Assado[3314] [61 235 0 0 0 0]
[15] - Calça(A)[1809] [43 0 71 50 59 0]
[16] - Jóia_da_Absorção[3204] [61 6 0 0 0 0]
[17] - Jóia_da_Proteção[3205] [61 6 0 0 0 0]
[18] - Jóia_do_Poder[3206] [61 6 0 0 0 0]
[19] - Jóia_da_Precisão[3208] [61 6 0 0 0 0]
[20] - Armadura(A)[1805] [43 0 71 40 60 4]
[21] - Jaqueta(N)[1554] [43 0 71 30 59 0]
[22] - Chapéu(N)[1551] [43 0 26 15 59 0]
[23] - Pedaço_do_Círculo_Divino[447] [59 59 59 122 59 77]
[24] - Dardo[877] [43 0 2 18 2 9]
[25] - Poeira_de_Lactolerium[413] [61 25 0 0 0 0]
[26] - Grifo_Sangrento[2386] [116 97 100 60 10 0]
[27] - Moeda_de_Bronze(50Mi)[4029] [61 110 0 0 0 0]
[28] - Pesadelo_(N/Grupo)[3324] [61 198 0 0 0 0]
[60] - Bolsa_do_Andarilho[3467] [106 21 110 2 109 121]
[61] - Bolsa_do_Andarilho[3467] [106 21 110 2 109 121]
[63] - Marca_do_Assassino[547] [150 0 0 0 77 0]

[USUÁRIOS LOGADOS]
Nenhuma outra conta logada 

13:59:23 : [AeroDynamik] - Personagem AeroDynamik enviado ao mundo 2096x 2101y - Canal 2 - Cash da conta: 15918. PowerLevel: 1697
13:59:23 : [AeroDynamik] - Gold atual: 0. Classe: 3 Evolução: 0. Experiência: 4114860243. Nível: 399. Info: 0. GuildID: 0. CP: 75. Pontos de Contribuição: 0. Limite: 0
13:59:23 : [AeroDynamik] - Logou no personagem AeroDynamik com poção divina ativo. Validade: 21/2/2021 9:16:26
13:59:23 : [AeroDynamik] - Logou no personagem AeroDynamik com frango ativo. Tempo: 1398
13:59:23 : [AeroDynamik] - Logou no personagem AeroDynamik com baú de experiência ativo. Tempo: 2564
13:59:23 : [AeroDynamik] - [Mensagem do servidor]> A guild [Teste123] derrotou Kefra
13:59:23 : [AeroDynamik] - Enviado informações do personagem
13:59:24 : [AeroDynamik] - Comando "/day "
13:59:24 : [AeroDynamik] - [Mensagem do servidor]> !#11 2
13:59:34 : [AeroDynamik] - O usuï¿½rio nï¿½o enviou o pacote de integridade de macaddress
13:59:36 : [AeroDynamik] - Personagem deu personagem
13:59:39 : Solicitou ir ao mundo...
13:59:39 : Recebido pedido para entrar no jogo
13:59:39 : Recebido informação do personagem completa.
13:59:39 : [Wozzzzzzzzz] - [INFORMAÇÕES DA CONTA]
Personagem online: Wozzzzzzzzz
Gold atual: 0
Level atual: 1010
Experiência atual: 1720878211
Evolução atual: Unknown
Tempo online até o momento: 00 dias e 00:01:38 horas
Posição atual: 2461x 2000y

Pontos NT: 0
Entradas Hall: 0
Info: 0
Soul: 0
Divina: 0/0/0 0:0:0
Sephira: 0/0/0 0:0:0
Saude: 0/0/0 0:0:0
Escritura: 0/0/0 0:0:0
Revigorante: 0/0/0 0:0:0
LastGuildKickout: 0/0/0 0:0:0
[EQUIPAMENTOS]
[00] - Warrior[1] [43 0 1 0 1 1]
[01] - Elmo(A)[1208] [43 9 3 25 26 18]
[02] - Armadura(A)[1211] [43 9 2 30 71 70]
[03] - Calça(A)[1214] [43 9 2 30 71 70]
[04] - Luvas(A)[1217] [43 9 54 18 72 30]
[05] - Botas(A)[1220] [43 9 73 30 74 18]
[14] - Rinoceronte[2363] [10 10 120 30 0 0]
[15] - Manto_do_Guerreiro[543] [0 0 0 0 0 0]

[INVENTÁRIO]
[00] - Cajado[977] [43 1 60 4 59 0]
[01] - Âmago_de_Aranha[2390] [61 40 0 0 0 0]
[02] - Dragão_Vermelho[2380] [10 10 120 30 0 0]
[03] - Jóia_da_Armazenagem[3207] [61 11 0 0 0 0]
[04] - Gema_da_Siren[658] [0 0 0 0 0 0]
[06] - Chapéu(M)[1642] [7 6 26 6 59 0]
[07] - Chapéu(M)[1642] [43 0 59 0 59 0]
[08] - Luvas(M)[1501] [43 1 72 10 60 2]
[09] - Elmo(M)[1492] [43 0 59 0 59 0]
[10] - Poeira_de_Oriharucon[412] [0 0 0 0 0 0]
[11] - Chapéu(M)[1342] [43 1 59 0 4 30]
[12] - Pegasus[2382] [10 10 120 30 0 0]
[13] - Espada[911] [2 45 0 0 0 0]
[63] - Marca_do_Assassino[547] [81 0 0 0 77 0]

[USUÁRIOS LOGADOS]
Nenhuma outra conta logada 

13:59:39 : [Wozzzzzzzzz] - Personagem Wozzzzzzzzz enviado ao mundo 2461x 2000y - Canal 2 - Cash da conta: 15918. PowerLevel: 1239
13:59:39 : [Wozzzzzzzzz] - Gold atual: 0. Classe: 0 Evolução: 0. Experiência: 1720878211. Nível: 1010. Info: 0. GuildID: 0. CP: 6. Pontos de Contribuição: 0. Limite: 0
13:59:39 : [Wozzzzzzzzz] - Logou no personagem Wozzzzzzzzz com poção divina ativo. Validade: 21/2/2021 9:16:26
13:59:39 : [Wozzzzzzzzz] - Logou no personagem Wozzzzzzzzz com baú de experiência ativo. Tempo: 1255
13:59:39 : [Wozzzzzzzzz] - [Mensagem do servidor]> A guild [Teste123] derrotou Kefra
13:59:39 : [Wozzzzzzzzz] - Enviado informações do personagem
13:59:40 : [Wozzzzzzzzz] - Comando "/day "
13:59:40 : [Wozzzzzzzzz] - [Mensagem do servidor]> !#11 2
13:59:46 : [Wozzzzzzzzz] - O usuï¿½rio nï¿½o enviou o pacote de integridade de macaddress
13:59:58 : [Wozzzzzzzzz] - ADMIN5 Recebeu lParam (WndProc) como 32. Erro possível: 10053. Desconectando o usuário.
13:59:58 : [Wozzzzzzzzz] - 4 Personagem foi desconectado. Permaneceu 00:01:56 minutos online
14:00:05 : =========================== NOVA SESSÃO ==========================
Tentativa de logar na conta (ADMIN5) - IP: 84.123.38.2 Mac: (0B:A7:7A:4E:00:4C). ClientId: 4
14:00:05 : Usuário logou no jogo com clientId 4. - Servidor 2. Gold do banco: 1000000000
14:00:05 : [INFORMAÇÕES DO BANCO]
Gold: 1000000000
[  0] - Arco_Guardião[3556] [43 9 2 36 0 0]
[ 80] - Andaluz_N[2370] [10 10 100 60 10 0]
[ 85] - Aranha[2360] [245 26 39 20 0 0]
[ 90] - Ração_de_Aranha[2420] [61 120 0 0 0 0]
[ 95] - Resto_de_Oriharucon[419] [61 10 0 0 0 0]
[100] - Resto_de_Lactolerium[420] [59 46 59 14 59 61]
[105] - Poeira_de_Lactolerium[413] [61 214 0 0 0 0]
[200] - Caixa_do_Andarilho[3479] [106 21 110 2 109 121]
[201] - Caixa_do_Andarilho[3479] [106 21 110 2 109 121]

14:00:13 : Solicitou ir ao mundo...
14:00:13 : Recebido pedido para entrar no jogo
14:00:13 : Recebido informação do personagem completa.
14:00:13 : [Wozzzzzzzzz] - [INFORMAÇÕES DA CONTA]
Personagem online: Wozzzzzzzzz
Gold atual: 0
Level atual: 1010
Experiência atual: 1720878211
Evolução atual: Unknown
Tempo online até o momento: 00 dias e 00:00:09 horas
Posição atual: 2462x 2009y

Pontos NT: 0
Entradas Hall: 0
Info: 0
Soul: 0
Divina: 0/0/0 0:0:0
Sephira: 0/0/0 0:0:0
Saude: 0/0/0 0:0:0
Escritura: 0/0/0 0:0:0
Revigorante: 0/0/0 0:0:0
LastGuildKickout: 0/0/0 0:0:0
[EQUIPAMENTOS]
[00] - Warrior[1] [43 0 1 0 1 1]
[01] - Elmo(A)[1208] [43 9 3 25 26 18]
[02] - Armadura(A)[1211] [43 9 2 30 71 70]
[03] - Calça(A)[1214] [43 9 2 30 71 70]
[04] - Luvas(A)[1217] [43 9 54 18 72 30]
[05] - Botas(A)[1220] [43 9 73 30 74 18]
[14] - Rinoceronte[2363] [10 10 120 30 0 0]
[15] - Manto_do_Guerreiro[543] [0 0 0 0 0 0]

[INVENTÁRIO]
[00] - Cajado[977] [43 1 60 4 59 0]
[01] - Âmago_de_Aranha[2390] [61 40 0 0 0 0]
[02] - Dragão_Vermelho[2380] [10 10 120 30 0 0]
[03] - Jóia_da_Armazenagem[3207] [61 11 0 0 0 0]
[04] - Gema_da_Siren[658] [0 0 0 0 0 0]
[06] - Chapéu(M)[1642] [7 6 26 6 59 0]
[07] - Chapéu(M)[1642] [43 0 59 0 59 0]
[08] - Luvas(M)[1501] [43 1 72 10 60 2]
[09] - Elmo(M)[1492] [43 0 59 0 59 0]
[10] - Poeira_de_Oriharucon[412] [0 0 0 0 0 0]
[11] - Chapéu(M)[1342] [43 1 59 0 4 30]
[12] - Pegasus[2382] [10 10 120 30 0 0]
[13] - Espada[911] [2 45 0 0 0 0]
[63] - Marca_do_Assassino[547] [81 0 0 0 77 0]

[USUÁRIOS LOGADOS]
Nenhuma outra conta logada 

14:00:13 : [Wozzzzzzzzz] - Personagem Wozzzzzzzzz enviado ao mundo 2462x 2009y - Canal 2 - Cash da conta: 15918. PowerLevel: 1239
14:00:13 : [Wozzzzzzzzz] - Gold atual: 0. Classe: 0 Evolução: 0. Experiência: 1720878211. Nível: 1010. Info: 0. GuildID: 0. CP: 6. Pontos de Contribuição: 0. Limite: 0
14:00:13 : [Wozzzzzzzzz] - Logou no personagem Wozzzzzzzzz com poção divina ativo. Validade: 21/2/2021 9:16:26
14:00:13 : [Wozzzzzzzzz] - Logou no personagem Wozzzzzzzzz com baú de experiência ativo. Tempo: 1253
14:00:13 : [Wozzzzzzzzz] - [Mensagem do servidor]> A guild [Teste123] derrotou Kefra
14:00:13 : [Wozzzzzzzzz] - Enviado informações do personagem
14:00:14 : [Wozzzzzzzzz] - Comando "/day "
14:00:14 : [Wozzzzzzzzz] - [Mensagem do servidor]> !#11 2
14:00:20 : [Wozzzzzzzzz] - Clicado no NPC [Guarda Carga ]. Face 106. Race: 2. GenerateId: 3271. Posição do usuário: 2463x 1992y. Posição do NPC: 2466x 1990y
14:00:22 : [Wozzzzzzzzz] - O usuï¿½rio nï¿½o enviou o pacote de integridade de macaddress
14:00:35 : [Wozzzzzzzzz] - [Mensagem do servidor]> Não possui GOLD suficiente
14:00:38 : [Wozzzzzzzzz] - [Mensagem do servidor]> Não possui GOLD suficiente
14:00:46 : [Wozzzzzzzzz] - [Mensagem do servidor]> 1 itens decompostos com sucesso!
14:00:49 : [Wozzzzzzzzz] - Item Barra_de_Bronze(100Mi) [4010] [0 0 0 0 0 0] utilizado em 2461x 2019y
14:00:49 : [Wozzzzzzzzz] - Gold atual: 0.
14:00:51 : [Wozzzzzzzzz] - Teleportado para a posição 2117 2102
14:01:12 : [Wozzzzzzzzz] - ADMIN5 Recebeu lParam (WndProc) como 32. Erro possível: 10053. Desconectando o usuário.
14:01:12 : [Wozzzzzzzzz] - 4 Personagem foi desconectado. Permaneceu 00:01:07 minutos online
14:05:35 : =========================== NOVA SESSÃO ==========================
Tentativa de logar na conta (ADMIN5) - IP: 84.123.38.2 Mac: (0B:A7:7A:4E:00:4C). ClientId: 4
14:05:35 : Usuário logou no jogo com clientId 4. - Servidor 2. Gold do banco: 1000000000
14:05:35 : [INFORMAÇÕES DO BANCO]
Gold: 1000000000
[  0] - Arco_Guardião[3556] [43 9 2 36 0 0]
[ 80] - Andaluz_N[2370] [10 10 100 60 10 0]
[ 85] - Aranha[2360] [245 26 39 20 0 0]
[ 90] - Ração_de_Aranha[2420] [61 120 0 0 0 0]
[ 95] - Resto_de_Oriharucon[419] [61 10 0 0 0 0]
[100] - Resto_de_Lactolerium[420] [59 46 59 14 59 61]
[105] - Poeira_de_Lactolerium[413] [61 214 0 0 0 0]
[200] - Caixa_do_Andarilho[3479] [106 21 110 2 109 121]
[201] - Caixa_do_Andarilho[3479] [106 21 110 2 109 121]

14:05:45 : ADMIN5 Recebeu lParam (WndProc) como 32. Erro possível: 0. Desconectando o usuário.
14:05:45 : Personagem foi desconectado. Permaneceu 00:00:10 minutos online
14:06:18 : =========================== NOVA SESSÃO ==========================
Tentativa de logar na conta (ADMIN5) - IP: 84.123.38.2 Mac: (0B:A7:7A:4E:00:4C). ClientId: 4
14:06:18 : Usuário logou no jogo com clientId 4. - Servidor 2. Gold do banco: 1000000000
14:06:18 : [INFORMAÇÕES DO BANCO]
Gold: 1000000000
[  0] - Arco_Guardião[3556] [43 9 2 36 0 0]
[ 80] - Andaluz_N[2370] [10 10 100 60 10 0]
[ 85] - Aranha[2360] [245 26 39 20 0 0]
[ 90] - Ração_de_Aranha[2420] [61 120 0 0 0 0]
[ 95] - Resto_de_Oriharucon[419] [61 10 0 0 0 0]
[100] - Resto_de_Lactolerium[420] [59 46 59 14 59 61]
[105] - Poeira_de_Lactolerium[413] [61 214 0 0 0 0]
[200] - Caixa_do_Andarilho[3479] [106 21 110 2 109 121]
[201] - Caixa_do_Andarilho[3479] [106 21 110 2 109 121]

14:06:23 : ADMIN5 Recebeu lParam (WndProc) como 32. Erro possível: 0. Desconectando o usuário.
14:06:23 : Personagem foi desconectado. Permaneceu 00:00:05 minutos online
15:00:58 : =========================== NOVA SESSÃO ==========================
Tentativa de logar na conta (ADMIN5) - IP: 84.123.38.2 Mac: (0B:A7:7A:4E:00:4C). ClientId: 4
15:00:58 : Usuário logou no jogo com clientId 4. - Servidor 2. Gold do banco: 1000000000
15:00:58 : [INFORMAÇÕES DO BANCO]
Gold: 1000000000
[  0] - Arco_Guardião[3556] [43 9 2 36 0 0]
[ 80] - Andaluz_N[2370] [10 10 100 60 10 0]
[ 85] - Aranha[2360] [245 26 39 20 0 0]
[ 90] - Ração_de_Aranha[2420] [61 120 0 0 0 0]
[ 95] - Resto_de_Oriharucon[419] [61 10 0 0 0 0]
[100] - Resto_de_Lactolerium[420] [59 46 59 14 59 61]
[105] - Poeira_de_Lactolerium[413] [61 214 0 0 0 0]
[200] - Caixa_do_Andarilho[3479] [106 21 110 2 109 121]
[201] - Caixa_do_Andarilho[3479] [106 21 110 2 109 121]

15:01:05 : Solicitou ir ao mundo...
15:01:05 : Recebido pedido para entrar no jogo
15:01:05 : Recebido informação do personagem completa.
15:01:05 : [Wozzzzzzzzz] - [INFORMAÇÕES DA CONTA]
Personagem online: Wozzzzzzzzz
Gold atual: 0
Level atual: 1010
Experiência atual: 1720878211
Evolução atual: Unknown
Tempo online até o momento: 00 dias e 00:00:07 horas
Posição atual: 2090x 2093y

Pontos NT: 0
Entradas Hall: 0
Info: 0
Soul: 0
Divina: 0/0/0 0:0:0
Sephira: 0/0/0 0:0:0
Saude: 0/0/0 0:0:0
Escritura: 0/0/0 0:0:0
Revigorante: 0/0/0 0:0:0
LastGuildKickout: 0/0/0 0:0:0
[EQUIPAMENTOS]
[00] - Warrior[1] [43 0 1 0 1 1]
[01] - Elmo(A)[1208] [43 9 3 25 26 18]
[02] - Armadura(A)[1211] [43 9 2 30 71 70]
[03] - Calça(A)[1214] [43 9 2 30 71 70]
[04] - Luvas(A)[1217] [43 9 54 18 72 30]
[05] - Botas(A)[1220] [43 9 73 30 74 18]
[14] - Rinoceronte[2363] [45 9 120 30 0 0]
[15] - Manto_do_Guerreiro[543] [0 0 0 0 0 0]

[INVENTÁRIO]
[00] - Cajado[977] [43 1 60 4 59 0]
[01] - Âmago_de_Aranha[2390] [61 40 0 0 0 0]
[02] - Dragão_Vermelho[2380] [10 10 120 30 0 0]
[03] - Jóia_da_Armazenagem[3207] [61 11 0 0 0 0]
[04] - Gema_da_Siren[658] [0 0 0 0 0 0]
[06] - Chapéu(M)[1642] [7 6 26 6 59 0]
[07] - Chapéu(M)[1642] [43 0 59 0 59 0]
[08] - Luvas(M)[1501] [43 1 72 10 60 2]
[09] - Elmo(M)[1492] [43 0 59 0 59 0]
[11] - Chapéu(M)[1342] [43 1 59 0 4 30]
[12] - Pegasus[2382] [10 10 120 30 0 0]
[13] - Espada[911] [2 45 0 0 0 0]
[63] - Marca_do_Assassino[547] [81 0 0 0 77 0]

[USUÁRIOS LOGADOS]
Nenhuma outra conta logada 

15:01:05 : [Wozzzzzzzzz] - Personagem Wozzzzzzzzz enviado ao mundo 2090x 2093y - Canal 2 - Cash da conta: 15918. PowerLevel: 1239
15:01:05 : [Wozzzzzzzzz] - Gold atual: 0. Classe: 0 Evolução: 0. Experiência: 1720878211. Nível: 1010. Info: 0. GuildID: 0. CP: 6. Pontos de Contribuição: 0. Limite: 0
15:01:05 : [Wozzzzzzzzz] - Logou no personagem Wozzzzzzzzz com poção divina ativo. Validade: 21/2/2021 9:16:26
15:01:05 : [Wozzzzzzzzz] - Logou no personagem Wozzzzzzzzz com baú de experiência ativo. Tempo: 1246
15:01:05 : [Wozzzzzzzzz] - [Mensagem do servidor]> A guild [Teste123] derrotou Kefra
15:01:05 : [Wozzzzzzzzz] - Enviado informações do personagem
15:01:07 : [Wozzzzzzzzz] - Comando "/day "
15:01:07 : [Wozzzzzzzzz] - [Mensagem do servidor]> !#11 2
15:01:11 : [Wozzzzzzzzz] - O usuï¿½rio nï¿½o enviou o pacote de integridade de macaddress
15:01:15 : [Wozzzzzzzzz] - Comando "/gm +move armia"
15:01:15 : [Wozzzzzzzzz] - Teleportado para a posição 2100 2100
15:01:31 : [Wozzzzzzzzz] - Matou o mob Gremlin. GenerID: -1
15:01:33 : [Wozzzzzzzzz] - Matou o mob Gremlin. GenerID: -1
15:02:39 : [Wozzzzzzzzz] - [Mensagem do servidor]> Não possui gold suficiente
15:02:52 : [Wozzzzzzzzz] - [Mensagem do servidor]> 1 itens decompostos com sucesso!
15:02:55 : [Wozzzzzzzzz] - Item Barra_de_Bronze(100Mi) [4010] [0 0 0 0 0 0] utilizado em 2461x 2008y
15:02:55 : [Wozzzzzzzzz] - Gold atual: 0.
15:02:58 : [Wozzzzzzzzz] - Teleportado para a posição 2117 2102
15:03:06 : [Wozzzzzzzzz] - Teleportado para a posição 960 1761
15:03:18 : [Wozzzzzzzzz] - ADMIN5 Recebeu lParam (WndProc) como 32. Erro possível: 10053. Desconectando o usuário.
15:03:18 : [Wozzzzzzzzz] - 4 Personagem foi desconectado. Permaneceu 00:02:17 minutos online
15:09:00 : =========================== NOVA SESSÃO ==========================
Tentativa de logar na conta (ADMIN5) - IP: 84.123.38.2 Mac: (0B:A7:7A:4E:00:4C). ClientId: 4
15:09:00 : Usuário logou no jogo com clientId 4. - Servidor 2. Gold do banco: 1000000000
15:09:00 : [INFORMAÇÕES DO BANCO]
Gold: 1000000000
[  0] - Arco_Guardião[3556] [43 9 2 36 0 0]
[ 80] - Andaluz_N[2370] [10 10 100 60 10 0]
[ 85] - Aranha[2360] [245 26 39 20 0 0]
[ 90] - Ração_de_Aranha[2420] [61 120 0 0 0 0]
[ 95] - Resto_de_Oriharucon[419] [61 10 0 0 0 0]
[100] - Resto_de_Lactolerium[420] [59 46 59 14 59 61]
[105] - Poeira_de_Lactolerium[413] [61 214 0 0 0 0]
[200] - Caixa_do_Andarilho[3479] [106 21 110 2 109 121]
[201] - Caixa_do_Andarilho[3479] [106 21 110 2 109 121]

15:09:04 : Solicitou ir ao mundo...
15:09:04 : Recebido pedido para entrar no jogo
15:09:04 : Recebido informação do personagem completa.
15:09:04 : [AeroDynamik] - [INFORMAÇÕES DA CONTA]
Personagem online: AeroDynamik
Gold atual: 0
Level atual: 399
Experiência atual: 4114860243
Evolução atual: Unknown
Tempo online até o momento: 00 dias e 00:00:04 horas
Posição atual: 2086x 2097y

Pontos NT: 0
Entradas Hall: 0
Info: 0
Soul: 0
Divina: 0/0/0 0:0:0
Sephira: 0/0/0 0:0:0
Saude: 0/0/0 0:0:0
Escritura: 0/0/0 0:0:0
Revigorante: 0/0/0 0:0:0
LastGuildKickout: 0/0/0 0:0:0
[EQUIPAMENTOS]
[00] - Rogue[31] [43 0 31 0 1 1]
[01] - Chapéu(A)[1643] [43 237 3 25 26 18]
[02] - Peitoral(A)[1646] [43 237 2 30 71 70]
[03] - Calça(A)[1649] [43 237 2 30 71 70]
[04] - Braçadeira(A)[1652] [43 237 54 18 72 30]
[05] - Botas(A)[1655] [43 237 73 30 74 18]
[06] - Arco[825] [2 45 43 1 0 0]
[08] - Brinco_de_Titã[592] [43 9 0 0 0 0]
[09] - Amuleto_de_Prata[551] [43 9 2 99 0 0]
[10] - Pedra_Espiritual[633] [43 9 0 0 0 0]
[11] - Ankh_da_Glória[663] [43 9 0 0 0 0]
[12] - Conjunto_Esqueleto[4153] [96 21 2 21 0 32]
[15] - Manto_do_Guerreiro[543] [0 0 0 0 0 0]

[INVENTÁRIO]
[00] - Fada_Vermelha(3dias)[3902] [106 2 107 22 108 59]
[01] - Barra_de_Prata_(1Bi)[4011] [61 120 0 0 0 0]
[02] - [S]Caixa_Poção_de_Cura[3322] [61 26 0 0 0 0]
[03] - Trombeta_Mágica[3330] [61 119 0 0 0 0]
[04] - Ração_de_Fenrir[2436] [61 5 0 0 0 0]
[05] - Fenrir[2376] [128 55 100 60 10 0]
[06] - Gema_da_Siren[658] [0 0 0 0 0 0]
[07] - Chapéu(M)[1342] [43 0 59 0 59 0]
[08] - Baú_de_Experiência[4140] [61 235 0 0 0 0]
[09] - Ração_de_Fenrir[2436] [61 5 0 0 0 0]
[10] - Chapéu(M)[1342] [43 1 60 4 59 0]
[11] - Luvas(M)[1501] [43 1 72 15 2 24]
[12] - Pedido_de_Caça(Kult)[3435] [61 9 0 0 0 0]
[13] - Baú_de_Caça[4139] [61 236 0 0 0 0]
[14] - Frango_Assado[3314] [61 235 0 0 0 0]
[15] - Calça(A)[1809] [43 0 71 50 59 0]
[16] - Jóia_da_Absorção[3204] [61 6 0 0 0 0]
[17] - Jóia_da_Proteção[3205] [61 6 0 0 0 0]
[18] - Jóia_do_Poder[3206] [61 6 0 0 0 0]
[19] - Jóia_da_Precisão[3208] [61 6 0 0 0 0]
[20] - Armadura(A)[1805] [43 0 71 40 60 4]
[21] - Jaqueta(N)[1554] [43 0 71 30 59 0]
[22] - Chapéu(N)[1551] [43 0 26 15 59 0]
[23] - Pedaço_do_Círculo_Divino[447] [59 59 59 122 59 77]
[24] - Dardo[877] [43 0 2 18 2 9]
[25] - Poeira_de_Lactolerium[413] [61 25 0 0 0 0]
[26] - Grifo_Sangrento[2386] [116 97 100 60 10 0]
[27] - Moeda_de_Bronze(50Mi)[4029] [61 110 0 0 0 0]
[28] - Pesadelo_(N/Grupo)[3324] [61 198 0 0 0 0]
[60] - Bolsa_do_Andarilho[3467] [106 21 110 2 109 121]
[61] - Bolsa_do_Andarilho[3467] [106 21 110 2 109 121]
[63] - Marca_do_Assassino[547] [150 0 0 0 77 0]

[USUÁRIOS LOGADOS]
Nenhuma outra conta logada 

15:09:04 : [AeroDynamik] - Personagem AeroDynamik enviado ao mundo 2086x 2097y - Canal 2 - Cash da conta: 15918. PowerLevel: 1697
15:09:04 : [AeroDynamik] - Gold atual: 0. Classe: 3 Evolução: 0. Experiência: 4114860243. Nível: 399. Info: 0. GuildID: 0. CP: 75. Pontos de Contribuição: 0. Limite: 0
15:09:04 : [AeroDynamik] - Logou no personagem AeroDynamik com poção divina ativo. Validade: 21/2/2021 9:16:26
15:09:04 : [AeroDynamik] - Logou no personagem AeroDynamik com frango ativo. Tempo: 1396
15:09:04 : [AeroDynamik] - Logou no personagem AeroDynamik com baú de experiência ativo. Tempo: 2562
15:09:04 : [AeroDynamik] - [Mensagem do servidor]> A guild [Teste123] derrotou Kefra
15:09:04 : [AeroDynamik] - Enviado informações do personagem
15:09:06 : [AeroDynamik] - Comando "/day "
15:09:06 : [AeroDynamik] - [Mensagem do servidor]> !#11 2
15:09:12 : [AeroDynamik] - O usuï¿½rio nï¿½o enviou o pacote de integridade de macaddress
15:10:49 : [AeroDynamik] - Matou o mob Meio Orc . GenerID: 866
15:10:51 : [AeroDynamik] - Matou o mob Orc Cavaleiro. GenerID: 873
15:10:52 : [AeroDynamik] - Matou o mob Orc Cavaleiro. GenerID: 873
15:10:53 : [AeroDynamik] - Matou o mob Meio Orc. GenerID: 873
15:10:54 : [AeroDynamik] - Matou o mob Meio Orc. GenerID: 859
15:11:14 : [AeroDynamik] - [Mensagem do servidor]> Não possui GOLD suficiente
15:11:26 : [AeroDynamik] - [Mensagem do servidor]> 1 itens decompostos com sucesso!
15:11:30 : [AeroDynamik] - Item Moeda_de_Bronze(50Mi) [4029] [61 110 0 0 0 0] utilizado em 2467x 2005y
15:11:30 : [AeroDynamik] - Gold atual: 0.
15:11:35 : [AeroDynamik] - Teleportado para a posição 2117 2102
15:11:46 : [AeroDynamik] - Personagem deu personagem
15:11:49 : Solicitou ir ao mundo...
15:11:49 : Recebido pedido para entrar no jogo
15:11:49 : Recebido informação do personagem completa.
15:11:49 : [Wozzzzzzzzz] - [INFORMAÇÕES DA CONTA]
Personagem online: Wozzzzzzzzz
Gold atual: 0
Level atual: 1010
Experiência atual: 1720878331
Evolução atual: Unknown
Tempo online até o momento: 00 dias e 00:02:46 horas
Posição atual: 2087x 2104y

Pontos NT: 0
Entradas Hall: 0
Info: 0
Soul: 0
Divina: 0/0/0 0:0:0
Sephira: 0/0/0 0:0:0
Saude: 0/0/0 0:0:0
Escritura: 0/0/0 0:0:0
Revigorante: 0/0/0 0:0:0
LastGuildKickout: 0/0/0 0:0:0
[EQUIPAMENTOS]
[00] - Warrior[1] [43 0 1 0 1 1]
[01] - Elmo(A)[1208] [43 9 3 25 26 18]
[02] - Armadura(A)[1211] [43 9 2 30 71 70]
[03] - Calça(A)[1214] [43 9 2 30 71 70]
[04] - Luvas(A)[1217] [43 9 54 18 72 30]
[05] - Botas(A)[1220] [43 9 73 30 74 18]
[14] - Rinoceronte[2363] [45 9 120 30 0 0]
[15] - Manto_do_Guerreiro[543] [0 0 0 0 0 0]

[INVENTÁRIO]
[00] - Cajado[977] [43 1 60 4 59 0]
[01] - Âmago_de_Aranha[2390] [61 40 0 0 0 0]
[02] - Dragão_Vermelho[2380] [10 10 120 30 0 0]
[03] - Jóia_da_Armazenagem[3207] [61 11 0 0 0 0]
[04] - Gema_da_Siren[658] [0 0 0 0 0 0]
[07] - Chapéu(M)[1642] [43 0 59 0 59 0]
[08] - Luvas(M)[1501] [43 1 72 10 60 2]
[09] - Elmo(M)[1492] [43 0 59 0 59 0]
[10] - Barra_de_Bronze(100Mi)[4010] [0 0 0 0 0 0]
[11] - Chapéu(M)[1342] [43 1 59 0 4 30]
[12] - Pegasus[2382] [10 10 120 30 0 0]
[13] - Espada[911] [2 45 0 0 0 0]
[63] - Marca_do_Assassino[547] [81 0 0 0 77 0]

[USUÁRIOS LOGADOS]
Nenhuma outra conta logada 

15:11:49 : [Wozzzzzzzzz] - Personagem Wozzzzzzzzz enviado ao mundo 2087x 2104y - Canal 2 - Cash da conta: 15918. PowerLevel: 1239
15:11:49 : [Wozzzzzzzzz] - Gold atual: 0. Classe: 0 Evolução: 0. Experiência: 1720878331. Nível: 1010. Info: 0. GuildID: 0. CP: 6. Pontos de Contribuição: 0. Limite: 0
15:11:49 : [Wozzzzzzzzz] - Logou no personagem Wozzzzzzzzz com poção divina ativo. Validade: 21/2/2021 9:16:26
15:11:49 : [Wozzzzzzzzz] - Logou no personagem Wozzzzzzzzz com baú de experiência ativo. Tempo: 1230
15:11:49 : [Wozzzzzzzzz] - [Mensagem do servidor]> A guild [Teste123] derrotou Kefra
15:11:49 : [Wozzzzzzzzz] - Enviado informações do personagem
15:11:50 : [Wozzzzzzzzz] - Comando "/day "
15:11:50 : [Wozzzzzzzzz] - [Mensagem do servidor]> !#11 2
15:12:00 : [Wozzzzzzzzz] - O usuï¿½rio nï¿½o enviou o pacote de integridade de macaddress
15:12:11 : [Wozzzzzzzzz] - ADMIN5 Recebeu lParam (WndProc) como 32. Erro possível: 0. Desconectando o usuário.
15:12:11 : [Wozzzzzzzzz] - 4 Personagem foi desconectado. Permaneceu 00:03:08 minutos online
15:22:08 : =========================== NOVA SESSÃO ==========================
Tentativa de logar na conta (ADMIN5) - IP: 84.123.38.2 Mac: (0B:A7:7A:4E:00:4C). ClientId: 4
15:22:08 : Usuário logou no jogo com clientId 4. - Servidor 2. Gold do banco: 1000000000
15:22:08 : [INFORMAÇÕES DO BANCO]
Gold: 1000000000
[  0] - Arco_Guardião[3556] [43 9 2 36 0 0]
[ 80] - Andaluz_N[2370] [10 10 100 60 10 0]
[ 85] - Aranha[2360] [245 26 39 20 0 0]
[ 90] - Ração_de_Aranha[2420] [61 120 0 0 0 0]
[ 95] - Resto_de_Oriharucon[419] [61 10 0 0 0 0]
[100] - Resto_de_Lactolerium[420] [59 46 59 14 59 61]
[105] - Poeira_de_Lactolerium[413] [61 214 0 0 0 0]
[200] - Caixa_do_Andarilho[3479] [106 21 110 2 109 121]
[201] - Caixa_do_Andarilho[3479] [106 21 110 2 109 121]

15:22:14 : Solicitou ir ao mundo...
15:22:14 : Recebido pedido para entrar no jogo
15:22:14 : Recebido informação do personagem completa.
15:22:14 : [Wozzzzzzzzz] - [INFORMAÇÕES DA CONTA]
Personagem online: Wozzzzzzzzz
Gold atual: 0
Level atual: 1010
Experiência atual: 1720878331
Evolução atual: Unknown
Tempo online até o momento: 00 dias e 00:00:06 horas
Posição atual: 2090x 2105y

Pontos NT: 0
Entradas Hall: 0
Info: 0
Soul: 0
Divina: 0/0/0 0:0:0
Sephira: 0/0/0 0:0:0
Saude: 0/0/0 0:0:0
Escritura: 0/0/0 0:0:0
Revigorante: 0/0/0 0:0:0
LastGuildKickout: 0/0/0 0:0:0
[EQUIPAMENTOS]
[00] - Warrior[1] [43 0 1 0 1 1]
[01] - Elmo(A)[1208] [43 9 3 25 26 18]
[02] - Armadura(A)[1211] [43 9 2 30 71 70]
[03] - Calça(A)[1214] [43 9 2 30 71 70]
[04] - Luvas(A)[1217] [43 9 54 18 72 30]
[05] - Botas(A)[1220] [43 9 73 30 74 18]