
13:17:27 : =========================== NOVA SESSÃO ==========================
Tentativa de logar na conta (ADMIN5) - IP: 84.123.38.2 Mac: (0B:A7:7A:4E:00:4C). ClientId: 1
13:17:27 : Usuário logou no jogo com clientId 1. - Servidor 2. Gold do banco: 1000000000
13:17:27 : [INFORMAÇÕES DO BANCO]
Gold: 1000000000
[  0] - Arco_Guardião[3556] [43 9 2 36 0 0]
[ 80] - Andaluz_N[2370] [10 10 100 60 10 0]
[ 85] - Aranha[2360] [245 26 39 20 0 0]
[ 90] - Ração_de_Aranha[2420] [61 120 0 0 0 0]
[ 95] - Resto_de_Oriharucon[419] [61 10 0 0 0 0]
[100] - Resto_de_Lactolerium[420] [59 46 59 14 59 61]
[105] - Poeira_de_Lactolerium[413] [61 214 0 0 0 0]
[200] - Caixa_do_Andarilho[3479] [106 21 110 2 109 121]
[201] - Caixa_do_Andarilho[3479] [106 21 110 2 109 121]

13:17:33 : Solicitou ir ao mundo...
13:17:33 : Recebido pedido para entrar no jogo
13:17:33 : Recebido informação do personagem completa.
13:17:33 : [AeroDynamik] - [INFORMAÇÕES DA CONTA]
Personagem online: AeroDynamik
Gold atual: 497728939
Level atual: 399
Experiência atual: 4114841163
Evolução atual: Unknown
Tempo online até o momento: 00 dias e 00:00:07 horas
Posição atual: 2090x 2100y

Pontos NT: 0
Entradas Hall: 0
Info: 0
Soul: 0
Divina: 0/0/0 0:0:0
Sephira: 0/0/0 0:0:0
Saude: 0/0/0 0:0:0
Escritura: 0/0/0 0:0:0
Revigorante: 0/0/0 0:0:0
LastGuildKickout: 0/0/0 0:0:0
[EQUIPAMENTOS]
[00] - Rogue[31] [43 0 31 0 1 1]
[01] - Chapéu(A)[1643] [43 237 3 25 26 18]
[02] - Peitoral(A)[1646] [43 237 2 30 71 70]
[03] - Calça(A)[1649] [43 237 2 30 71 70]
[04] - Braçadeira(A)[1652] [43 237 54 18 72 30]
[05] - Botas(A)[1655] [43 237 73 30 74 18]
[06] - Arco[825] [2 45 43 1 0 0]
[08] - Brinco_de_Titã[592] [43 9 0 0 0 0]
[09] - Amuleto_de_Prata[551] [43 9 2 99 0 0]
[10] - Pedra_Espiritual[633] [43 9 0 0 0 0]
[11] - Ankh_da_Glória[663] [43 9 0 0 0 0]
[12] - Conjunto_Esqueleto[4153] [96 21 2 21 0 32]
[15] - Manto_do_Guerreiro[543] [0 0 0 0 0 0]

[INVENTÁRIO]
[00] - Fada_Vermelha(3dias)[3902] [106 2 107 22 108 59]
[01] - Ultra_Poção_de_Mana[409] [61 28 0 0 0 0]
[02] - [S]Caixa_Poção_de_Cura[3322] [61 30 0 0 0 0]
[03] - Trombeta_Mágica[3330] [61 119 0 0 0 0]
[04] - Ração_de_Fenrir[2436] [61 5 0 0 0 0]
[05] - Fenrir[2376] [128 55 100 60 10 0]
[06] - Gema_da_Siren[658] [0 0 0 0 0 0]
[07] - Chapéu(M)[1342] [43 0 59 0 59 0]
[08] - Baú_de_Experiência[4140] [61 235 0 0 0 0]
[09] - Ração_de_Fenrir[2436] [61 5 0 0 0 0]
[10] - Chapéu(M)[1342] [43 1 60 4 59 0]
[11] - Luvas(M)[1501] [43 1 72 15 2 24]
[12] - Pedido_de_Caça(Kult)[3435] [61 9 0 0 0 0]
[13] - Baú_de_Caça[4139] [61 236 0 0 0 0]
[14] - Frango_Assado[3314] [61 235 0 0 0 0]
[15] - Calça(A)[1809] [43 0 71 50 59 0]
[16] - Jóia_da_Absorção[3204] [61 6 0 0 0 0]
[17] - Jóia_da_Proteção[3205] [61 6 0 0 0 0]
[18] - Jóia_do_Poder[3206] [61 6 0 0 0 0]
[19] - Jóia_da_Precisão[3208] [61 6 0 0 0 0]
[20] - Armadura(A)[1805] [43 0 71 40 60 4]
[21] - Jaqueta(N)[1554] [43 0 71 30 59 0]
[22] - Chapéu(N)[1551] [43 0 26 15 59 0]
[23] - Pedaço_do_Círculo_Divino[447] [59 59 59 122 59 77]
[25] - Poeira_de_Lactolerium[413] [61 25 0 0 0 0]
[26] - Grifo_Sangrento[2386] [116 97 100 60 10 0]
[60] - Bolsa_do_Andarilho[3467] [106 21 110 2 109 121]
[61] - Bolsa_do_Andarilho[3467] [106 21 110 2 109 121]
[63] - Marca_do_Assassino[547] [150 0 0 0 77 0]

[USUÁRIOS LOGADOS]
Nenhuma outra conta logada 

13:17:33 : [AeroDynamik] - Personagem AeroDynamik enviado ao mundo 2090x 2100y - Canal 2 - Cash da conta: 15918. PowerLevel: 1697
13:17:33 : [AeroDynamik] - Gold atual: 497728939. Classe: 3 Evolução: 0. Experiência: 4114841163. Nível: 399. Info: 0. GuildID: 0. CP: 75. Pontos de Contribuição: 0. Limite: 0
13:17:33 : [AeroDynamik] - Logou no personagem AeroDynamik com poção divina ativo. Validade: 21/2/2021 9:16:26
13:17:33 : [AeroDynamik] - Logou no personagem AeroDynamik com frango ativo. Tempo: 1656
13:17:33 : [AeroDynamik] - Logou no personagem AeroDynamik com baú de experiência ativo. Tempo: 2822
13:17:33 : [AeroDynamik] - Resetado a contagem de entradas água! Day: 33-34. Total: 0
13:17:33 : [AeroDynamik] - Enviado informações do personagem
13:17:35 : [AeroDynamik] - Comando "/day "
13:17:35 : [AeroDynamik] - [Mensagem do servidor]> !#11 2
13:17:39 : [AeroDynamik] - O usuï¿½rio nï¿½o enviou o pacote de integridade de macaddress
13:17:47 : [AeroDynamik] - Personagem deu personagem
13:17:53 : Solicitou ir ao mundo...
13:17:53 : Recebido pedido para entrar no jogo
13:17:53 : Recebido informação do personagem completa.
13:17:53 : [Wozzzzzzzzz] - [INFORMAÇÕES DA CONTA]
Personagem online: Wozzzzzzzzz
Gold atual: 300063543
Level atual: 1010
Experiência atual: 1720878211
Evolução atual: Unknown
Tempo online até o momento: 00 dias e 00:00:26 horas
Posição atual: 2092x 2096y

Pontos NT: 0
Entradas Hall: 0
Info: 0
Soul: 0
Divina: 0/0/0 0:0:0
Sephira: 0/0/0 0:0:0
Saude: 0/0/0 0:0:0
Escritura: 0/0/0 0:0:0
Revigorante: 0/0/0 0:0:0
LastGuildKickout: 0/0/0 0:0:0
[EQUIPAMENTOS]
[00] - Warrior[1] [43 0 1 0 1 1]
[01] - Elmo(A)[1208] [43 9 3 25 26 18]
[02] - Armadura(A)[1211] [43 9 2 30 71 70]
[03] - Calça(A)[1214] [43 9 2 30 71 70]
[04] - Luvas(A)[1217] [43 9 54 18 72 30]
[05] - Botas(A)[1220] [43 9 73 30 74 18]
[15] - Manto_do_Guerreiro[543] [0 0 0 0 0 0]

[INVENTÁRIO]
[00] - Cajado[977] [43 1 60 4 59 0]
[01] - Âmago_de_Aranha[2390] [61 40 0 0 0 0]
[02] - Dragão_Vermelho[2380] [10 10 120 30 0 0]
[03] - Jóia_da_Armazenagem[3207] [61 11 0 0 0 0]
[04] - Gema_da_Siren[658] [0 0 0 0 0 0]
[05] - Rinoceronte[2363] [10 10 120 30 0 0]
[06] - Chapéu(M)[1642] [7 6 26 6 59 0]
[07] - Chapéu(M)[1642] [43 0 59 0 59 0]
[08] - Luvas(M)[1501] [43 1 72 10 60 2]
[09] - Elmo(M)[1492] [43 0 59 0 59 0]
[10] - Poeira_de_Lactolerium[413] [0 0 0 0 0 0]
[11] - Chapéu(M)[1342] [43 1 59 0 4 30]
[12] - Pegasus[2382] [10 10 120 30 0 0]
[13] - Espada[911] [2 45 0 0 0 0]
[63] - Marca_do_Assassino[547] [81 0 0 0 77 0]

[USUÁRIOS LOGADOS]
Nenhuma outra conta logada 

13:17:53 : [Wozzzzzzzzz] - Personagem Wozzzzzzzzz enviado ao mundo 2092x 2096y - Canal 2 - Cash da conta: 15918. PowerLevel: 1109
13:17:53 : [Wozzzzzzzzz] - Gold atual: 300063543. Classe: 0 Evolução: 0. Experiência: 1720878211. Nível: 1010. Info: 0. GuildID: 0. CP: 6. Pontos de Contribuição: 0. Limite: 0
13:17:53 : [Wozzzzzzzzz] - Logou no personagem Wozzzzzzzzz com poção divina ativo. Validade: 21/2/2021 9:16:26
13:17:53 : [Wozzzzzzzzz] - Logou no personagem Wozzzzzzzzz com baú de experiência ativo. Tempo: 1278
13:17:53 : [Wozzzzzzzzz] - Enviado informações do personagem
13:17:54 : [Wozzzzzzzzz] - Comando "/day "
13:17:54 : [Wozzzzzzzzz] - [Mensagem do servidor]> !#11 2
13:18:02 : [Wozzzzzzzzz] - Teleportado para a posição 960 1761
13:18:02 : [Wozzzzzzzzz] - O usuï¿½rio nï¿½o enviou o pacote de integridade de macaddress
13:18:09 : [Wozzzzzzzzz] - Personagem deu personagem
13:18:11 : Solicitou ir ao mundo...
13:18:11 : Recebido pedido para entrar no jogo
13:18:11 : Recebido informação do personagem completa.
13:18:11 : [GordoViolent] - [INFORMAÇÕES DA CONTA]
Personagem online: GordoViolent
Gold atual: 0
Level atual: 1011
Experiência atual: 0
Evolução atual: Unknown
Tempo online até o momento: 00 dias e 00:00:44 horas
Posição atual: 2088x 2104y

Pontos NT: 0
Entradas Hall: 0
Info: 0
Soul: 0
Divina: 0/0/0 0:0:0
Sephira: 0/0/0 0:0:0
Saude: 0/0/0 0:0:0
Escritura: 0/0/0 0:0:0
Revigorante: 0/0/0 0:0:0
LastGuildKickout: 0/0/0 0:0:0
[EQUIPAMENTOS]
[00] - Guardian[21] [43 0 21 0 1 1]
[01] - Elmo(N)[1416] [43 0 0 0 0 0]
[02] - Armadura(N)[1419] [43 0 0 0 0 0]
[03] - Calça(N)[1422] [43 0 0 0 0 0]
[04] - Luvas(N)[1425] [43 0 0 0 0 0]
[05] - Botas(N)[1428] [43 0 0 0 0 0]
[06] - Adaga[861] [43 0 0 0 0 0]
[15] - Manto_do_Guerreiro[543] [0 0 0 0 0 0]

[INVENTÁRIO]
[63] - Marca_do_Assassino[547] [75 0 0 0 77 0]

[USUÁRIOS LOGADOS]
Nenhuma outra conta logada 

13:18:11 : [GordoViolent] - Personagem GordoViolent enviado ao mundo 2088x 2104y - Canal 2 - Cash da conta: 15918. PowerLevel: 682
13:18:11 : [GordoViolent] - Gold atual: 0. Classe: 2 Evolução: 0. Experiência: 0. Nível: 1011. Info: 0. GuildID: 0. CP: 0. Pontos de Contribuição: 0. Limite: 0
13:18:11 : [GordoViolent] - Logou no personagem GordoViolent com poção divina ativo. Validade: 21/2/2021 9:16:26
13:18:11 : [GordoViolent] - Enviado informações do personagem
13:18:12 : [GordoViolent] - Comando "/day "
13:18:12 : [GordoViolent] - [Mensagem do servidor]> !#11 2
13:18:23 : [GordoViolent] - Personagem deu personagem
13:18:25 : Solicitou ir ao mundo...
13:18:25 : Recebido pedido para entrar no jogo
13:18:25 : Recebido informação do personagem completa.
13:18:25 : [AeroDynamik] - [INFORMAÇÕES DA CONTA]
Personagem online: AeroDynamik
Gold atual: 497728939
Level atual: 399
Experiência atual: 4114841163
Evolução atual: Unknown
Tempo online até o momento: 00 dias e 00:00:58 horas
Posição atual: 2090x 2104y

Pontos NT: 0
Entradas Hall: 0
Info: 0
Soul: 0
Divina: 0/0/0 0:0:0
Sephira: 0/0/0 0:0:0
Saude: 0/0/0 0:0:0
Escritura: 0/0/0 0:0:0
Revigorante: 0/0/0 0:0:0
LastGuildKickout: 0/0/0 0:0:0
[EQUIPAMENTOS]
[00] - Rogue[31] [43 0 31 0 1 1]
[01] - Chapéu(A)[1643] [43 237 3 25 26 18]
[02] - Peitoral(A)[1646] [43 237 2 30 71 70]
[03] - Calça(A)[1649] [43 237 2 30 71 70]
[04] - Braçadeira(A)[1652] [43 237 54 18 72 30]
[05] - Botas(A)[1655] [43 237 73 30 74 18]
[06] - Arco[825] [2 45 43 1 0 0]
[08] - Brinco_de_Titã[592] [43 9 0 0 0 0]
[09] - Amuleto_de_Prata[551] [43 9 2 99 0 0]
[10] - Pedra_Espiritual[633] [43 9 0 0 0 0]
[11] - Ankh_da_Glória[663] [43 9 0 0 0 0]
[12] - Conjunto_Esqueleto[4153] [96 21 2 21 0 32]
[15] - Manto_do_Guerreiro[543] [0 0 0 0 0 0]

[INVENTÁRIO]
[00] - Fada_Vermelha(3dias)[3902] [106 2 107 22 108 59]
[01] - Ultra_Poção_de_Mana[409] [61 28 0 0 0 0]
[02] - [S]Caixa_Poção_de_Cura[3322] [61 30 0 0 0 0]
[03] - Trombeta_Mágica[3330] [61 119 0 0 0 0]
[04] - Ração_de_Fenrir[2436] [61 5 0 0 0 0]
[05] - Fenrir[2376] [128 55 100 60 10 0]
[06] - Gema_da_Siren[658] [0 0 0 0 0 0]
[07] - Chapéu(M)[1342] [43 0 59 0 59 0]
[08] - Baú_de_Experiência[4140] [61 235 0 0 0 0]
[09] - Ração_de_Fenrir[2436] [61 5 0 0 0 0]
[10] - Chapéu(M)[1342] [43 1 60 4 59 0]
[11] - Luvas(M)[1501] [43 1 72 15 2 24]
[12] - Pedido_de_Caça(Kult)[3435] [61 9 0 0 0 0]
[13] - Baú_de_Caça[4139] [61 236 0 0 0 0]
[14] - Frango_Assado[3314] [61 235 0 0 0 0]
[15] - Calça(A)[1809] [43 0 71 50 59 0]
[16] - Jóia_da_Absorção[3204] [61 6 0 0 0 0]
[17] - Jóia_da_Proteção[3205] [61 6 0 0 0 0]
[18] - Jóia_do_Poder[3206] [61 6 0 0 0 0]
[19] - Jóia_da_Precisão[3208] [61 6 0 0 0 0]
[20] - Armadura(A)[1805] [43 0 71 40 60 4]
[21] - Jaqueta(N)[1554] [43 0 71 30 59 0]
[22] - Chapéu(N)[1551] [43 0 26 15 59 0]
[23] - Pedaço_do_Círculo_Divino[447] [59 59 59 122 59 77]
[25] - Poeira_de_Lactolerium[413] [61 25 0 0 0 0]
[26] - Grifo_Sangrento[2386] [116 97 100 60 10 0]
[60] - Bolsa_do_Andarilho[3467] [106 21 110 2 109 121]
[61] - Bolsa_do_Andarilho[3467] [106 21 110 2 109 121]
[63] - Marca_do_Assassino[547] [150 0 0 0 77 0]

[USUÁRIOS LOGADOS]
Nenhuma outra conta logada 

13:18:25 : [AeroDynamik] - Personagem AeroDynamik enviado ao mundo 2090x 2104y - Canal 2 - Cash da conta: 15918. PowerLevel: 1697
13:18:25 : [AeroDynamik] - Gold atual: 497728939. Classe: 3 Evolução: 0. Experiência: 4114841163. Nível: 399. Info: 0. GuildID: 0. CP: 75. Pontos de Contribuição: 0. Limite: 0
13:18:25 : [AeroDynamik] - Logou no personagem AeroDynamik com poção divina ativo. Validade: 21/2/2021 9:16:26
13:18:25 : [AeroDynamik] - Logou no personagem AeroDynamik com frango ativo. Tempo: 1654
13:18:25 : [AeroDynamik] - Logou no personagem AeroDynamik com baú de experiência ativo. Tempo: 2820
13:18:25 : [AeroDynamik] - Enviado informações do personagem
13:18:26 : [AeroDynamik] - Comando "/day "
13:18:26 : [AeroDynamik] - [Mensagem do servidor]> !#11 2
13:18:37 : [AeroDynamik] - Personagem deu personagem
13:18:39 : ADMIN5 Recebeu lParam (WndProc) como 32. Erro possível: 0. Desconectando o usuário.
13:18:39 : Personagem foi desconectado. Permaneceu 00:01:11 minutos online
13:31:13 : =========================== NOVA SESSÃO ==========================
Tentativa de logar na conta (ADMIN5) - IP: 84.123.38.2 Mac: (0B:A7:7A:4E:00:4C). ClientId: 2
13:31:13 : Usuário logou no jogo com clientId 2. - Servidor 2. Gold do banco: 1000000000
13:31:13 : [INFORMAÇÕES DO BANCO]
Gold: 1000000000
[  0] - Arco_Guardião[3556] [43 9 2 36 0 0]
[ 80] - Andaluz_N[2370] [10 10 100 60 10 0]
[ 85] - Aranha[2360] [245 26 39 20 0 0]
[ 90] - Ração_de_Aranha[2420] [61 120 0 0 0 0]
[ 95] - Resto_de_Oriharucon[419] [61 10 0 0 0 0]
[100] - Resto_de_Lactolerium[420] [59 46 59 14 59 61]
[105] - Poeira_de_Lactolerium[413] [61 214 0 0 0 0]
[200] - Caixa_do_Andarilho[3479] [106 21 110 2 109 121]
[201] - Caixa_do_Andarilho[3479] [106 21 110 2 109 121]

13:31:19 : Solicitou ir ao mundo...
13:31:19 : Recebido pedido para entrar no jogo
13:31:19 : Recebido informação do personagem completa.
13:31:19 : [AeroDynamik] - [INFORMAÇÕES DA CONTA]
Personagem online: AeroDynamik
Gold atual: 497728939
Level atual: 399
Experiência atual: 4114841163
Evolução atual: Unknown
Tempo online até o momento: 00 dias e 00:00:05 horas
Posição atual: 2092x 2098y

Pontos NT: 0
Entradas Hall: 0
Info: 0
Soul: 0
Divina: 0/0/0 0:0:0
Sephira: 0/0/0 0:0:0
Saude: 0/0/0 0:0:0
Escritura: 0/0/0 0:0:0
Revigorante: 0/0/0 0:0:0
LastGuildKickout: 0/0/0 0:0:0
[EQUIPAMENTOS]
[00] - Rogue[31] [43 0 31 0 1 1]
[01] - Chapéu(A)[1643] [43 237 3 25 26 18]
[02] - Peitoral(A)[1646] [43 237 2 30 71 70]
[03] - Calça(A)[1649] [43 237 2 30 71 70]
[04] - Braçadeira(A)[1652] [43 237 54 18 72 30]
[05] - Botas(A)[1655] [43 237 73 30 74 18]
[06] - Arco[825] [2 45 43 1 0 0]
[08] - Brinco_de_Titã[592] [43 9 0 0 0 0]
[09] - Amuleto_de_Prata[551] [43 9 2 99 0 0]
[10] - Pedra_Espiritual[633] [43 9 0 0 0 0]
[11] - Ankh_da_Glória[663] [43 9 0 0 0 0]
[12] - Conjunto_Esqueleto[4153] [96 21 2 21 0 32]
[15] - Manto_do_Guerreiro[543] [0 0 0 0 0 0]

[INVENTÁRIO]
[00] - Fada_Vermelha(3dias)[3902] [106 2 107 22 108 59]
[01] - Ultra_Poção_de_Mana[409] [61 28 0 0 0 0]
[02] - [S]Caixa_Poção_de_Cura[3322] [61 30 0 0 0 0]
[03] - Trombeta_Mágica[3330] [61 119 0 0 0 0]
[04] - Ração_de_Fenrir[2436] [61 5 0 0 0 0]
[05] - Fenrir[2376] [128 55 100 60 10 0]
[06] - Gema_da_Siren[658] [0 0 0 0 0 0]
[07] - Chapéu(M)[1342] [43 0 59 0 59 0]
[08] - Baú_de_Experiência[4140] [61 235 0 0 0 0]
[09] - Ração_de_Fenrir[2436] [61 5 0 0 0 0]
[10] - Chapéu(M)[1342] [43 1 60 4 59 0]
[11] - Luvas(M)[1501] [43 1 72 15 2 24]
[12] - Pedido_de_Caça(Kult)[3435] [61 9 0 0 0 0]
[13] - Baú_de_Caça[4139] [61 236 0 0 0 0]
[14] - Frango_Assado[3314] [61 235 0 0 0 0]
[15] - Calça(A)[1809] [43 0 71 50 59 0]
[16] - Jóia_da_Absorção[3204] [61 6 0 0 0 0]
[17] - Jóia_da_Proteção[3205] [61 6 0 0 0 0]
[18] - Jóia_do_Poder[3206] [61 6 0 0 0 0]
[19] - Jóia_da_Precisão[3208] [61 6 0 0 0 0]
[20] - Armadura(A)[1805] [43 0 71 40 60 4]
[21] - Jaqueta(N)[1554] [43 0 71 30 59 0]
[22] - Chapéu(N)[1551] [43 0 26 15 59 0]
[23] - Pedaço_do_Círculo_Divino[447] [59 59 59 122 59 77]
[25] - Poeira_de_Lactolerium[413] [61 25 0 0 0 0]
[26] - Grifo_Sangrento[2386] [116 97 100 60 10 0]
[60] - Bolsa_do_Andarilho[3467] [106 21 110 2 109 121]
[61] - Bolsa_do_Andarilho[3467] [106 21 110 2 109 121]
[63] - Marca_do_Assassino[547] [150 0 0 0 77 0]

[USUÁRIOS LOGADOS]
Nenhuma outra conta logada 

13:31:19 : [AeroDynamik] - Personagem AeroDynamik enviado ao mundo 2092x 2098y - Canal 2 - Cash da conta: 15918. PowerLevel: 1697
13:31:19 : [AeroDynamik] - Gold atual: 497728939. Classe: 3 Evolução: 0. Experiência: 4114841163. Nível: 399. Info: 0. GuildID: 0. CP: 75. Pontos de Contribuição: 0. Limite: 0
13:31:19 : [AeroDynamik] - Logou no personagem AeroDynamik com poção divina ativo. Validade: 21/2/2021 9:16:26
13:31:19 : [AeroDynamik] - Logou no personagem AeroDynamik com frango ativo. Tempo: 1652
13:31:19 : [AeroDynamik] - Logou no personagem AeroDynamik com baú de experiência ativo. Tempo: 2818
13:31:19 : [AeroDynamik] - Enviado informações do personagem
13:31:20 : [AeroDynamik] - Comando "/day "
13:31:20 : [AeroDynamik] - [Mensagem do servidor]> !#11 2
13:31:24 : [AeroDynamik] - Comando "/gm +move erion"
13:31:24 : [AeroDynamik] - Teleportado para a posição 2460 2009
13:31:27 : [AeroDynamik] - O usuï¿½rio nï¿½o enviou o pacote de integridade de macaddress
13:31:36 : [AeroDynamik] - Comando "/nig "
13:31:36 : [AeroDynamik] - [Mensagem do servidor]> !!133136
13:31:39 : [AeroDynamik] - Trade com conta ADMIN3
13:31:39 : [AeroDynamik] - Trade - 0 - Recebido Pesadelo_(N/Grupo) de LALALA [3324] [0 0 0 0 0 0]
13:31:39 : [AeroDynamik] - Trade - Enviado 0 de gold para o usuário
13:31:39 : [AeroDynamik] - Trade - Recebido 0 de gold do usuário
13:31:41 : [AeroDynamik] - Item Pesadelo_(N/Grupo) [3324] [0 0 0 0 0 0] utilizado em 2459x 2004y
13:31:41 : [AeroDynamik] - [Mensagem do servidor]> Entrada não permitida
13:31:51 : [AeroDynamik] - Item Pesadelo_(N/Grupo) [3324] [0 0 0 0 0 0] utilizado em 2463x 2002y
13:31:51 : [AeroDynamik] - [Mensagem do servidor]> Entrada não permitida
13:32:16 : [AeroDynamik] - Usado buff Escudo Dourado. Gold consumido: 25500. Gold atual: 497703439
13:39:56 : [AeroDynamik] - Comando "/nig "
13:39:56 : [AeroDynamik] - [Mensagem do servidor]> !!133956
13:39:56 : [AeroDynamik] - Comando "/nig "
13:39:56 : [AeroDynamik] - [Mensagem do servidor]> !!133956
13:39:56 : [AeroDynamik] - Comando "/nig "
13:39:56 : [AeroDynamik] - [Mensagem do servidor]> !!133956
13:39:56 : [AeroDynamik] - Comando "/nig "
13:39:56 : [AeroDynamik] - [Mensagem do servidor]> !!133956
13:39:56 : [AeroDynamik] - Comando "/nig "
13:39:56 : [AeroDynamik] - [Mensagem do servidor]> !!133956
13:39:56 : [AeroDynamik] - Comando "/nig "
13:39:56 : [AeroDynamik] - [Mensagem do servidor]> !!133956
13:39:56 : [AeroDynamik] - Comando "/nig "
13:39:56 : [AeroDynamik] - [Mensagem do servidor]> !!133956
13:40:01 : [AeroDynamik] - Item Pesadelo_(N/Grupo) [3324] [0 0 0 0 0 0] utilizado em 2461x 2002y
13:40:01 : [AeroDynamik] - Pesadelo N - Slot: 0 - Name: LALALA
13:40:01 : [AeroDynamik] - Teleportado para a posição 1210 180
13:40:01 : [AeroDynamik] - Pesadelo N - Slot: 1 - Name: AeroDynamik
13:40:01 : [AeroDynamik] - Pesadelo N - Grupo de AeroDynamik
13:40:01 : [AeroDynamik] - Teleportado para a posição 1304 332
13:40:15 : [AeroDynamik] - Matou o mob Meio Orc@. GenerID: 300
13:40:16 : [AeroDynamik] - Matou o mob Meio Orc@. GenerID: 300
13:40:18 : [AeroDynamik] - Matou o mob Meio Orc@. GenerID: 300
13:40:20 : [AeroDynamik] - Matou o mob Meio Orc@. GenerID: 300
13:40:21 : [AeroDynamik] - Matou o mob Meio Orc@. GenerID: 300
13:40:27 : [AeroDynamik] - Matou o mob Cavaleiro Orc@. GenerID: 298
13:40:29 : [AeroDynamik] - Matou o mob Cavaleiro Orc@. GenerID: 298
13:40:31 : [AeroDynamik] - Matou o mob Krill Gigante@. GenerID: 297
13:40:32 : [AeroDynamik] - Matou o mob Krill Gigante@. GenerID: 297
13:40:35 : [AeroDynamik] - Matou o mob Meio Orc@. GenerID: 300
13:40:42 : [AeroDynamik] - Matou o mob Krill Gigante@. GenerID: 297
13:40:44 : [AeroDynamik] - Matou o mob Troll Caos@. GenerID: 299
13:40:44 : [AeroDynamik] - Matou o mob Troll Caos@. GenerID: 299
13:40:45 : [AeroDynamik] - Matou o mob Troll Caos . GenerID: 299
13:40:47 : [AeroDynamik] - Matou o mob Cavaleiro Orc@. GenerID: 298
13:40:48 : [AeroDynamik] - Matou o mob Meio Orc . GenerID: 300
13:40:49 : [AeroDynamik] - Matou o mob Cavaleiro Orc@. GenerID: 298
13:40:50 : [AeroDynamik] - Matou o mob Cavaleiro Orc@. GenerID: 298
13:40:51 : [AeroDynamik] - Matou o mob Meio Orc@. GenerID: 300
13:40:52 : [AeroDynamik] - Matou o mob Cavaleiro Orc@. GenerID: 298
13:40:53 : [AeroDynamik] - Matou o mob Meio Orc@. GenerID: 300
13:40:54 : [AeroDynamik] - Matou o mob Cavaleiro Orc@. GenerID: 298
13:40:57 : [AeroDynamik] - Matou o mob Cavaleiro Orc@. GenerID: 298
13:40:58 : [AeroDynamik] - Matou o mob Cavaleiro Orc@. GenerID: 298
13:41:00 : [AeroDynamik] - Matou o mob Cavaleiro Orc@. GenerID: 298
13:41:10 : [AeroDynamik] - Matou o mob Meio Orc@. GenerID: 300
13:41:20 : [AeroDynamik] - Matou o mob Troll Caos@. GenerID: 299
13:41:27 : [AeroDynamik] - Matou o mob Troll Caos@. GenerID: 299
13:41:29 : [AeroDynamik] - Matou o mob Troll Caos@. GenerID: 299
13:41:30 : [AeroDynamik] - Matou o mob Meio Orc@. GenerID: 300
13:41:40 : [AeroDynamik] - Matou o mob Meio Orc@. GenerID: 300
13:41:41 : [AeroDynamik] - Matou o mob Meio Orc@. GenerID: 300
13:41:42 : [AeroDynamik] - Matou o mob Cavaleiro Orc . GenerID: 298
13:41:43 : [AeroDynamik] - Matou o mob Meio Orc@. GenerID: 300
13:41:44 : [AeroDynamik] - Matou o mob Meio Orc@. GenerID: 300
13:41:46 : [AeroDynamik] - Matou o mob Meio Orc@. GenerID: 300
13:41:48 : [AeroDynamik] - Matou o mob Troll . GenerID: 301
13:41:50 : [AeroDynamik] - Matou o mob Troll@. GenerID: 301
13:41:53 : [AeroDynamik] - Matou o mob Troll@. GenerID: 301
13:41:54 : [AeroDynamik] - Matou o mob Troll@. GenerID: 301
13:41:55 : [AeroDynamik] - Matou o mob Troll@. GenerID: 301
13:41:59 : [AeroDynamik] - Matou o mob Troll Caos@. GenerID: 299
13:42:00 : [AeroDynamik] - Matou o mob Troll Caos@. GenerID: 299
13:42:15 : [AeroDynamik] - Matou o mob Troll@. GenerID: 301
13:42:17 : [AeroDynamik] - Matou o mob Troll@. GenerID: 301
13:42:18 : [AeroDynamik] - Matou o mob Troll@. GenerID: 301
13:42:19 : [AeroDynamik] - Matou o mob Troll@. GenerID: 301
13:43:18 : [AeroDynamik] - Matou o mob Meio Orc@. GenerID: 302
13:43:19 : [AeroDynamik] - Matou o mob Meio Orc@. GenerID: 302
13:43:20 : [AeroDynamik] - Matou o mob Meio Orc@. GenerID: 302
13:43:21 : [AeroDynamik] - Matou o mob Troll Caos@. GenerID: 303
13:43:22 : [AeroDynamik] - Matou o mob Troll Caos . GenerID: 303
13:43:23 : [AeroDynamik] - Matou o mob Meio Orc@. GenerID: 302
13:43:25 : [AeroDynamik] - Matou o mob Meio Orc@. GenerID: 302
13:43:27 : [AeroDynamik] - Matou o mob Troll Caos@. GenerID: 303
13:43:29 : [AeroDynamik] - Matou o mob Troll Caos@. GenerID: 303
13:43:30 : [AeroDynamik] - Matou o mob Troll Caos@. GenerID: 303
13:43:31 : [AeroDynamik] - Matou o mob Troll Caos@. GenerID: 303
13:43:32 : [AeroDynamik] - Matou o mob Troll Caos@. GenerID: 303
13:43:33 : [AeroDynamik] - Matou o mob Troll Caos@. GenerID: 303
13:43:36 : [AeroDynamik] - Matou o mob Meio Orc@. GenerID: 302
13:43:38 : [AeroDynamik] - Matou o mob Meio Orc@. GenerID: 302
13:43:39 : [AeroDynamik] - Matou o mob Troll Caos@. GenerID: 303
13:43:40 : [AeroDynamik] - Matou o mob Troll Caos@. GenerID: 303
13:43:41 : [AeroDynamik] - Matou o mob Troll Caos@. GenerID: 303
13:43:42 : [AeroDynamik] - Matou o mob Troll Caos@. GenerID: 303
13:44:58 : [AeroDynamik] - Matou o mob Meio Orc@. GenerID: 300
13:44:59 : [AeroDynamik] - Matou o mob Meio Orc@. GenerID: 300
13:45:00 : [AeroDynamik] - Matou o mob Meio Orc@. GenerID: 300
13:45:01 : [AeroDynamik] - Matou o mob Meio Orc@. GenerID: 300
13:45:03 : [AeroDynamik] - Matou o mob Meio Orc@. GenerID: 300
13:45:04 : [AeroDynamik] - Matou o mob Meio Orc@. GenerID: 300
13:45:05 : [AeroDynamik] - Matou o mob Meio Orc@. GenerID: 300
13:45:07 : [AeroDynamik] - Matou o mob Meio Orc@. GenerID: 300
13:45:09 : [AeroDynamik] - Matou o mob Meio Orc@. GenerID: 300
13:45:11 : [AeroDynamik] - Enviando skill com o target maior que o da skill.
13:45:11 : [AeroDynamik] - Enviando skill com o target maior que o da skill.
13:45:11 : [AeroDynamik] - Enviando skill com o target maior que o da skill.
13:45:11 : [AeroDynamik] - Matou o mob Meio Orc@. GenerID: 300
13:45:11 : [AeroDynamik] - Matou o mob Meio Orc@. GenerID: 300
13:45:11 : [AeroDynamik] - Matou o mob Troll Caos@. GenerID: 299
13:45:11 : [AeroDynamik] - Matou o mob Krill Gigante@. GenerID: 297
13:45:11 : [AeroDynamik] - Matou o mob Krill Gigante@. GenerID: 297
13:45:11 : [AeroDynamik] - Matou o mob Krill Gigante@. GenerID: 297
13:45:13 : [AeroDynamik] - Matou o mob Krill Gigante@. GenerID: 297
13:45:18 : [AeroDynamik] - Matou o mob Troll Caos@. GenerID: 299
13:45:19 : [AeroDynamik] - Matou o mob Troll Caos . GenerID: 299
13:45:21 : [AeroDynamik] - Matou o mob Krill Gigante@. GenerID: 297
13:45:38 : [AeroDynamik] - Matou o mob Meio Orc . GenerID: 300
13:45:48 : [AeroDynamik] - Matou o mob Troll Caos@. GenerID: 299
13:45:50 : [AeroDynamik] - Matou o mob Meio Orc@. GenerID: 300
13:45:51 : [AeroDynamik] - Matou o mob Meio Orc@. GenerID: 300
13:45:52 : [AeroDynamik] - Matou o mob Krill Gigante@. GenerID: 297
13:45:55 : [AeroDynamik] - Matou o mob Meio Orc@. GenerID: 300
13:45:56 : [AeroDynamik] - Matou o mob Troll Caos@. GenerID: 299
13:45:57 : [AeroDynamik] - Matou o mob Troll Caos@. GenerID: 299
13:45:58 : [AeroDynamik] - Matou o mob Troll Caos@. GenerID: 299
13:45:59 : [AeroDynamik] - Matou o mob Rei Gremlin@. GenerID: 305
13:46:00 : [AeroDynamik] - Matou o mob Rei Gremlin@. GenerID: 305
13:46:01 : [AeroDynamik] - Matou o mob Rei Gremlin@. GenerID: 305
13:46:02 : [AeroDynamik] - Matou o mob Rei Gremlin@. GenerID: 305
13:46:04 : [AeroDynamik] - Matou o mob Meio Orc@. GenerID: 300
13:46:05 : [AeroDynamik] - Matou o mob Meio Orc@. GenerID: 300
13:46:06 : [AeroDynamik] - Matou o mob Meio Orc@. GenerID: 300
13:46:07 : [AeroDynamik] - Matou o mob Rei Gremlin . GenerID: 305
13:46:07 : [AeroDynamik] - Dropado item Dardo [877] [43 0 2 18 2 9] em 1308x 331y - Rei Gremlin  (1/300)
13:46:09 : [AeroDynamik] - Matou o mob Meio Orc@. GenerID: 300
13:46:10 : [AeroDynamik] - Matou o mob Meio Orc@. GenerID: 300
13:46:11 : [AeroDynamik] - Matou o mob Rei Gremlin@. GenerID: 305
13:46:12 : [AeroDynamik] - Matou o mob Rei Gremlin@. GenerID: 305
13:46:13 : [AeroDynamik] - Matou o mob Rei Gremlin@. GenerID: 305
13:46:14 : [AeroDynamik] - Matou o mob Rei Gremlin@. GenerID: 305
13:46:15 : [AeroDynamik] - Matou o mob Rei Gremlin@. GenerID: 305
13:46:17 : [AeroDynamik] - Matou o mob Rei Gremlin@. GenerID: 305
13:46:18 : [AeroDynamik] - Matou o mob Rei Gremlin@. GenerID: 305
13:46:19 : [AeroDynamik] - Matou o mob Rei Gremlin@. GenerID: 305
13:46:19 : [AeroDynamik] - Matou o mob Rei Gremlin@. GenerID: 305
13:46:20 : [AeroDynamik] - Matou o mob Rei Gremlin@. GenerID: 305
13:46:22 : [AeroDynamik] - Matou o mob Rei Gremlin@. GenerID: 305
13:46:23 : [AeroDynamik] - Matou o mob Rei Gremlin@. GenerID: 305
13:46:24 : [AeroDynamik] - Matou o mob Rei Gremlin@. GenerID: 305
13:46:25 : [AeroDynamik] - Matou o mob Rei Gremlin . GenerID: 305
13:46:26 : [AeroDynamik] - Matou o mob Meio Orc@. GenerID: 300
13:46:29 : [AeroDynamik] - Matou o mob Troll Caos@. GenerID: 299
13:48:14 : [AeroDynamik] - Erro no envio do pacote. Total a ser enviado: 1096. Error: 10035
13:48:14 : [AeroDynamik] - Erro no envio do pacote. Total a ser enviado: 1028. Error: 10035
13:48:15 : [AeroDynamik] - Erro no envio do pacote. Total a ser enviado: 1012. Error: 10035
13:48:16 : [AeroDynamik] - Erro no envio do pacote. Total a ser enviado: 920. Error: 10035
13:48:16 : [AeroDynamik] - Erro no envio do pacote. Total a ser enviado: 804. Error: 10035
13:48:17 : [AeroDynamik] - Erro no envio do pacote. Total a ser enviado: 1412. Error: 10035
13:48:17 : [AeroDynamik] - Erro no envio do pacote. Total a ser enviado: 1148. Error: 10035
13:48:18 : [AeroDynamik] - Erro no envio do pacote. Total a ser enviado: 1028. Error: 10035
13:48:18 : [AeroDynamik] - Erro no envio do pacote. Total a ser enviado: 688. Error: 10035
13:50:08 : [AeroDynamik] - ADMIN5 Recebeu lParam (WndProc) como 32. Erro possível: 10053. Desconectando o usuário.
13:50:08 : [AeroDynamik] - 2 Personagem foi desconectado. Permaneceu 00:10:31 minutos online
13:50:08 : [AeroDynamik] - Recebeu 200 de gold em 2 mobs no total. Total de gold: 497703639
17:40:26 : =========================== NOVA SESSÃO ==========================
Tentativa de logar na conta (ADMIN5) - IP: 84.123.38.2 Mac: (0B:A7:7A:4E:00:4C). ClientId: 3
17:40:26 : Usuário logou no jogo com clientId 3. - Servidor 2. Gold do banco: 1000000000
17:40:26 : [INFORMAÇÕES DO BANCO]
Gold: 1000000000
[  0] - Arco_Guardião[3556] [43 9 2 36 0 0]
[ 80] - Andaluz_N[2370] [10 10 100 60 10 0]
[ 85] - Aranha[2360] [245 26 39 20 0 0]
[ 90] - Ração_de_Aranha[2420] [61 120 0 0 0 0]
[ 95] - Resto_de_Oriharucon[419] [61 10 0 0 0 0]
[100] - Resto_de_Lactolerium[420] [59 46 59 14 59 61]
[105] - Poeira_de_Lactolerium[413] [61 214 0 0 0 0]
[200] - Caixa_do_Andarilho[3479] [106 21 110 2 109 121]
[201] - Caixa_do_Andarilho[3479] [106 21 110 2 109 121]

17:40:27 : [INFORMAÇÕES DA CONTA]
Personagem na seleção de personagem. Sem informações no momento
Tempo online até o momento: 00 dias e 00:00:01 horas

[USUÁRIOS LOGADOS]
Nenhuma outra conta logada 

17:40:30 : Solicitou ir ao mundo...
17:40:30 : Recebido pedido para entrar no jogo
17:40:30 : Recebido informação do personagem completa.
17:40:30 : [AeroDynamik] - [INFORMAÇÕES DA CONTA]
Personagem online: AeroDynamik
Gold atual: 497703639
Level atual: 399
Experiência atual: 4114848363
Evolução atual: Unknown
Tempo online até o momento: 00 dias e 00:00:04 horas
Posição atual: 2088x 2106y

Pontos NT: 0
Entradas Hall: 0
Info: 0
Soul: 0
Divina: 0/0/0 0:0:0
Sephira: 0/0/0 0:0:0
Saude: 0/0/0 0:0:0
Escritura: 0/0/0 0:0:0
Revigorante: 0/0/0 0:0:0
LastGuildKickout: 0/0/0 0:0:0
[EQUIPAMENTOS]
[00] - Rogue[31] [43 0 31 0 1 1]
[01] - Chapéu(A)[1643] [43 237 3 25 26 18]
[02] - Peitoral(A)[1646] [43 237 2 30 71 70]
[03] - Calça(A)[1649] [43 237 2 30 71 70]
[04] - Braçadeira(A)[1652] [43 237 54 18 72 30]
[05] - Botas(A)[1655] [43 237 73 30 74 18]
[06] - Arco[825] [2 45 43 1 0 0]
[08] - Brinco_de_Titã[592] [43 9 0 0 0 0]
[09] - Amuleto_de_Prata[551] [43 9 2 99 0 0]
[10] - Pedra_Espiritual[633] [43 9 0 0 0 0]
[11] - Ankh_da_Glória[663] [43 9 0 0 0 0]
[12] - Conjunto_Esqueleto[4153] [96 21 2 21 0 32]
[15] - Manto_do_Guerreiro[543] [0 0 0 0 0 0]

[INVENTÁRIO]
[00] - Fada_Vermelha(3dias)[3902] [106 2 107 22 108 59]
[01] - Ultra_Poção_de_Mana[409] [61 28 0 0 0 0]
[02] - [S]Caixa_Poção_de_Cura[3322] [61 30 0 0 0 0]
[03] - Trombeta_Mágica[3330] [61 119 0 0 0 0]
[04] - Ração_de_Fenrir[2436] [61 5 0 0 0 0]
[05] - Fenrir[2376] [128 55 100 60 10 0]
[06] - Gema_da_Siren[658] [0 0 0 0 0 0]
[07] - Chapéu(M)[1342] [43 0 59 0 59 0]
[08] - Baú_de_Experiência[4140] [61 235 0 0 0 0]
[09] - Ração_de_Fenrir[2436] [61 5 0 0 0 0]
[10] - Chapéu(M)[1342] [43 1 60 4 59 0]
[11] - Luvas(M)[1501] [43 1 72 15 2 24]