
13:36:30 : =========================== NOVA SESSÃO ==========================
Tentativa de logar na conta (ADMIN5) - IP: 84.123.38.2 Mac: (0B:A7:7A:4E:00:4C). ClientId: 2
13:36:30 : Usuário logou no jogo com clientId 2. - Servidor 2. Gold do banco: 1000000000
13:36:30 : [INFORMAÇÕES DO BANCO]
Gold: 1000000000
[ 80] - Andaluz_N[2370] [10 10 100 60 10 0]
[ 85] - Aranha[2360] [245 26 39 20 0 0]
[ 90] - Ração_de_Aranha[2420] [61 120 0 0 0 0]
[ 95] - Resto_de_Oriharucon[419] [61 10 0 0 0 0]
[100] - Resto_de_Lactolerium[420] [59 46 59 14 59 61]
[105] - Poeira_de_Lactolerium[413] [61 214 0 0 0 0]
[200] - Caixa_do_Andarilho[3479] [106 21 110 2 109 121]
[201] - Caixa_do_Andarilho[3479] [106 21 110 2 109 121]

13:36:30 : [INFORMAÇÕES DA CONTA]
Personagem na seleção de personagem. Sem informações no momento
Tempo online até o momento: 00 dias e 00:00:01 horas

[USUÁRIOS LOGADOS]
Nenhuma outra conta logada 

13:36:35 : Solicitou ir ao mundo...
13:36:35 : Recebido pedido para entrar no jogo
13:36:35 : Recebido informação do personagem completa.
13:36:35 : [AeroDynamik] - [INFORMAÇÕES DA CONTA]
Personagem online: AeroDynamik
Gold atual: 497859672
Level atual: 399
Experiência atual: 4114840122
Evolução atual: Unknown
Tempo online até o momento: 00 dias e 00:00:06 horas
Posição atual: 3658x 3132y

Pontos NT: 0
Entradas Hall: 0
Info: 0
Soul: 0
Divina: 0/0/0 0:0:0
Sephira: 0/0/0 0:0:0
Saude: 0/0/0 0:0:0
Escritura: 0/0/0 0:0:0
Revigorante: 0/0/0 0:0:0
LastGuildKickout: 0/0/0 0:0:0
[EQUIPAMENTOS]
[00] - Rogue[31] [43 0 31 0 1 1]
[01] - Chapéu(A)[1643] [43 237 3 25 26 18]
[02] - Peitoral(A)[1646] [43 237 2 30 71 70]
[03] - Calça(A)[1649] [43 237 2 30 71 70]
[04] - Braçadeira(A)[1652] [43 237 54 18 72 30]
[05] - Botas(A)[1655] [43 237 73 30 74 18]
[06] - Arco_Guardião[3556] [43 9 2 36 0 0]
[08] - Brinco_de_Titã[592] [43 9 0 0 0 0]
[09] - Amuleto_de_Prata[551] [43 9 2 99 0 0]
[10] - Pedra_Espiritual[633] [43 9 0 0 0 0]
[11] - Ankh_da_Glória[663] [43 9 0 0 0 0]
[12] - Conjunto_Esqueleto[4153] [96 21 2 21 0 32]
[14] - Grifo_Sangrento[2386] [22 100 100 60 10 0]

[INVENTÁRIO]
[00] - Fada_Vermelha(3dias)[3902] [106 2 107 22 108 59]
[01] - Ultra_Poção_de_Mana[409] [61 47 0 0 0 0]
[02] - [S]Caixa_Poção_de_Cura[3322] [61 30 0 0 0 0]
[03] - Trombeta_Mágica[3330] [61 119 0 0 0 0]
[04] - Ração_de_Fenrir[2436] [61 5 0 0 0 0]
[05] - Fenrir[2376] [128 55 100 60 10 0]
[06] - Gema_da_Siren[658] [0 0 0 0 0 0]
[07] - Chapéu(M)[1342] [43 0 59 0 59 0]
[08] - Baú_de_Experiência[4140] [61 236 0 0 0 0]
[09] - Ração_de_Fenrir[2436] [61 5 0 0 0 0]
[10] - Chapéu(M)[1342] [43 1 60 4 59 0]
[11] - Luvas(M)[1501] [43 1 72 15 2 24]
[12] - Pedido_de_Caça(Kult)[3435] [61 9 0 0 0 0]
[13] - Baú_de_Caça[4139] [61 236 0 0 0 0]
[14] - Frango_Assado[3314] [61 236 0 0 0 0]
[15] - Poeira_de_Lactolerium[413] [61 52 0 0 0 0]
[16] - Jóia_da_Absorção[3204] [61 7 0 0 0 0]
[17] - Jóia_da_Proteção[3205] [61 7 0 0 0 0]
[18] - Jóia_do_Poder[3206] [61 7 0 0 0 0]
[19] - Jóia_da_Precisão[3208] [61 7 0 0 0 0]
[60] - Bolsa_do_Andarilho[3467] [106 21 110 2 109 121]
[61] - Bolsa_do_Andarilho[3467] [106 21 110 2 109 121]
[63] - Marca_do_Assassino[547] [150 0 0 0 77 0]

[USUÁRIOS LOGADOS]
Nenhuma outra conta logada 

13:36:35 : [AeroDynamik] - Personagem AeroDynamik enviado ao mundo 3658x 3132y - Canal 2 - Cash da conta: 15918. PowerLevel: 4127
13:36:35 : [AeroDynamik] - Gold atual: 497859672. Classe: 3 Evolução: 0. Experiência: 4114840122. Nível: 399. Info: 0. GuildID: 0. CP: 75. Pontos de Contribuição: 0. Limite: 0
13:36:35 : [AeroDynamik] - Logou no personagem AeroDynamik com poção divina ativo. Validade: 21/2/2021 9:16:26
13:36:35 : [AeroDynamik] - Logou no personagem AeroDynamik com frango ativo. Tempo: 1059
13:36:35 : [AeroDynamik] - Logou no personagem AeroDynamik com baú de experiência ativo. Tempo: 2239
13:36:35 : [AeroDynamik] - Resetado a contagem de entradas água! Day: 24-25. Total: 0
13:36:35 : [AeroDynamik] - [Mensagem do servidor]> O Kefra foi derrotado
13:36:35 : [AeroDynamik] - Enviado informações do personagem
13:36:37 : [AeroDynamik] - Comando "/day "
13:36:37 : [AeroDynamik] - [Mensagem do servidor]> !#11 2
13:36:48 : [AeroDynamik] - Teleportado para a posição 2117 2102
13:36:50 : [AeroDynamik] - O usuï¿½rio nï¿½o enviou o pacote de integridade de macaddress
13:36:56 : [AeroDynamik] - Teleportado para a posição 960 1761
13:38:20 : [AeroDynamik] - Usado buff Escudo Dourado. Gold consumido: 25500. Gold atual: 497831372
13:38:23 : [AeroDynamik] - Matou o mob Tauron. GenerID: 3990
13:38:27 : [AeroDynamik] - Matou o mob Tauron. GenerID: 3991
13:38:31 : [AeroDynamik] - Matou o mob Tauron. GenerID: 3991
13:38:34 : [AeroDynamik] - Matou o mob Tauron Bandido. GenerID: 3990
13:38:38 : [AeroDynamik] - Matou o mob Tauron. GenerID: 3990
13:38:45 : [AeroDynamik] - Matou o mob Tauron. GenerID: 3991
13:38:49 : [AeroDynamik] - Matou o mob Tauron. GenerID: 3991
13:38:55 : [AeroDynamik] - Matou o mob Tauron. GenerID: 3991
13:38:59 : [AeroDynamik] - Matou o mob Tauron. GenerID: 3991
13:39:05 : [AeroDynamik] - Matou o mob Tauron. GenerID: 3991
13:39:06 : [AeroDynamik] - Matou o mob Tauron. GenerID: 3990
13:39:10 : [AeroDynamik] - Matou o mob Tauron. GenerID: 3991
13:39:20 : [AeroDynamik] - Comando "/srv 1"
13:39:20 : [AeroDynamik] - Solicitou trocar para o servidor 1
13:39:20 : [AeroDynamik] - 2 Personagem foi desconectado. Permaneceu 00:02:48 minutos online
13:39:20 : [AeroDynamik] - Recebeu 3609 de gold em 2 mobs no total. Total de gold: 497834981
13:39:20 : =========================== NOVA SESSÃO ==========================
Tentativa de logar na conta (ADMIN5) - IP: 84.123.38.2 Mac: (0B:A7:7A:4E:00:4C). ClientId: 3
13:39:20 : Usuário logou no jogo com clientId 3. - Servidor 1. Gold do banco: 1000000000
13:39:20 : [INFORMAÇÕES DO BANCO]
Gold: 1000000000
[ 80] - Andaluz_N[2370] [10 10 100 60 10 0]
[ 85] - Aranha[2360] [245 26 39 20 0 0]
[ 90] - Ração_de_Aranha[2420] [61 120 0 0 0 0]
[ 95] - Resto_de_Oriharucon[419] [61 10 0 0 0 0]
[100] - Resto_de_Lactolerium[420] [59 46 59 14 59 61]
[105] - Poeira_de_Lactolerium[413] [61 214 0 0 0 0]
[200] - Caixa_do_Andarilho[3479] [106 21 110 2 109 121]
[201] - Caixa_do_Andarilho[3479] [106 21 110 2 109 121]

13:39:21 : Recebido informação do personagem completa.
13:39:21 : [AeroDynamik] - [INFORMAÇÕES DA CONTA]
Personagem online: AeroDynamik
Gold atual: 497834981
Level atual: 399
Experiência atual: 4114840134
Evolução atual: Unknown
Tempo online até o momento: 00 dias e 00:00:00 horas
Posição atual: 2098x 2103y

Pontos NT: 0
Entradas Hall: 0
Info: 0
Soul: 0
Divina: 0/0/0 0:0:0
Sephira: 0/0/0 0:0:0
Saude: 0/0/0 0:0:0
Escritura: 0/0/0 0:0:0
Revigorante: 0/0/0 0:0:0
LastGuildKickout: 0/0/0 0:0:0
[EQUIPAMENTOS]
[00] - Rogue[31] [43 0 31 0 1 1]
[01] - Chapéu(A)[1643] [43 237 3 25 26 18]
[02] - Peitoral(A)[1646] [43 237 2 30 71 70]
[03] - Calça(A)[1649] [43 237 2 30 71 70]
[04] - Braçadeira(A)[1652] [43 237 54 18 72 30]
[05] - Botas(A)[1655] [43 237 73 30 74 18]
[06] - Arco_Guardião[3556] [43 9 2 36 0 0]
[08] - Brinco_de_Titã[592] [43 9 0 0 0 0]
[09] - Amuleto_de_Prata[551] [43 9 2 99 0 0]
[10] - Pedra_Espiritual[633] [43 9 0 0 0 0]
[11] - Ankh_da_Glória[663] [43 9 0 0 0 0]
[12] - Conjunto_Esqueleto[4153] [96 21 2 21 0 32]
[14] - Grifo_Sangrento[2386] [116 97 100 60 10 0]

[INVENTÁRIO]
[00] - Fada_Vermelha(3dias)[3902] [106 2 107 22 108 59]
[01] - Ultra_Poção_de_Mana[409] [61 45 0 0 0 0]
[02] - [S]Caixa_Poção_de_Cura[3322] [61 30 0 0 0 0]
[03] - Trombeta_Mágica[3330] [61 119 0 0 0 0]
[04] - Ração_de_Fenrir[2436] [61 5 0 0 0 0]
[05] - Fenrir[2376] [128 55 100 60 10 0]
[06] - Gema_da_Siren[658] [0 0 0 0 0 0]
[07] - Chapéu(M)[1342] [43 0 59 0 59 0]
[08] - Baú_de_Experiência[4140] [61 236 0 0 0 0]
[09] - Ração_de_Fenrir[2436] [61 5 0 0 0 0]
[10] - Chapéu(M)[1342] [43 1 60 4 59 0]
[11] - Luvas(M)[1501] [43 1 72 15 2 24]
[12] - Pedido_de_Caça(Kult)[3435] [61 9 0 0 0 0]
[13] - Baú_de_Caça[4139] [61 236 0 0 0 0]
[14] - Frango_Assado[3314] [61 236 0 0 0 0]
[15] - Poeira_de_Lactolerium[413] [61 52 0 0 0 0]
[16] - Jóia_da_Absorção[3204] [61 7 0 0 0 0]
[17] - Jóia_da_Proteção[3205] [61 7 0 0 0 0]
[18] - Jóia_do_Poder[3206] [61 7 0 0 0 0]
[19] - Jóia_da_Precisão[3208] [61 7 0 0 0 0]
[60] - Bolsa_do_Andarilho[3467] [106 21 110 2 109 121]
[61] - Bolsa_do_Andarilho[3467] [106 21 110 2 109 121]
[63] - Marca_do_Assassino[547] [150 0 0 0 77 0]

[USUÁRIOS LOGADOS]
Nenhuma outra conta logada 

13:39:21 : [AeroDynamik] - Personagem AeroDynamik enviado ao mundo 2098x 2103y - Canal 1 - Cash da conta: 15918. PowerLevel: 4127
13:39:21 : [AeroDynamik] - Gold atual: 497834981. Classe: 3 Evolução: 0. Experiência: 4114840134. Nível: 399. Info: 0. GuildID: 0. CP: 75. Pontos de Contribuição: 0. Limite: 0
13:39:21 : [AeroDynamik] - Logou no personagem AeroDynamik com poção divina ativo. Validade: 21/2/2021 9:16:26
13:39:21 : [AeroDynamik] - Logou no personagem AeroDynamik com frango ativo. Tempo: 1039
13:39:21 : [AeroDynamik] - Logou no personagem AeroDynamik com baú de experiência ativo. Tempo: 2219
13:39:21 : [AeroDynamik] - [Mensagem do servidor]> A guild [Teste123] derrotou Kefra
13:39:22 : [AeroDynamik] - Comando "/day "
13:39:22 : [AeroDynamik] - [Mensagem do servidor]> !#11 2
13:39:35 : [AeroDynamik] - O usuï¿½rio nï¿½o enviou o pacote de integridade de macaddress
13:41:15 : [AeroDynamik] - ADMIN5 Recebeu lParam (WndProc) como 32. Erro possível: 10053. Desconectando o usuário.
13:41:15 : [AeroDynamik] - 3 Personagem foi desconectado. Permaneceu 00:01:53 minutos online
13:41:54 : =========================== NOVA SESSÃO ==========================
Tentativa de logar na conta (ADMIN5) - IP: 84.123.38.2 Mac: (0B:A7:7A:4E:00:4C). ClientId: 2
13:41:54 : Usuário logou no jogo com clientId 2. - Servidor 2. Gold do banco: 1000000000
13:41:54 : [INFORMAÇÕES DO BANCO]
Gold: 1000000000
[ 80] - Andaluz_N[2370] [10 10 100 60 10 0]
[ 85] - Aranha[2360] [245 26 39 20 0 0]
[ 90] - Ração_de_Aranha[2420] [61 120 0 0 0 0]
[ 95] - Resto_de_Oriharucon[419] [61 10 0 0 0 0]
[100] - Resto_de_Lactolerium[420] [59 46 59 14 59 61]
[105] - Poeira_de_Lactolerium[413] [61 214 0 0 0 0]
[200] - Caixa_do_Andarilho[3479] [106 21 110 2 109 121]
[201] - Caixa_do_Andarilho[3479] [106 21 110 2 109 121]

13:42:01 : Solicitou ir ao mundo...
13:42:01 : Recebido pedido para entrar no jogo
13:42:01 : Recebido informação do personagem completa.
13:42:01 : [AeroDynamik] - [INFORMAÇÕES DA CONTA]
Personagem online: AeroDynamik
Gold atual: 497834981
Level atual: 399
Experiência atual: 4114840134
Evolução atual: Unknown
Tempo online até o momento: 00 dias e 00:00:07 horas
Posição atual: 2095x 2098y

Pontos NT: 0
Entradas Hall: 0
Info: 0
Soul: 0
Divina: 0/0/0 0:0:0
Sephira: 0/0/0 0:0:0
Saude: 0/0/0 0:0:0
Escritura: 0/0/0 0:0:0
Revigorante: 0/0/0 0:0:0
LastGuildKickout: 0/0/0 0:0:0
[EQUIPAMENTOS]
[00] - Rogue[31] [43 0 31 0 1 1]
[01] - Chapéu(A)[1643] [43 237 3 25 26 18]
[02] - Peitoral(A)[1646] [43 237 2 30 71 70]
[03] - Calça(A)[1649] [43 237 2 30 71 70]
[04] - Braçadeira(A)[1652] [43 237 54 18 72 30]
[05] - Botas(A)[1655] [43 237 73 30 74 18]
[06] - Arco_Guardião[3556] [43 9 2 36 0 0]
[08] - Brinco_de_Titã[592] [43 9 0 0 0 0]
[09] - Amuleto_de_Prata[551] [43 9 2 99 0 0]
[10] - Pedra_Espiritual[633] [43 9 0 0 0 0]
[11] - Ankh_da_Glória[663] [43 9 0 0 0 0]
[12] - Conjunto_Esqueleto[4153] [96 21 2 21 0 32]
[14] - Grifo_Sangrento[2386] [116 97 100 60 10 0]

[INVENTÁRIO]
[00] - Fada_Vermelha(3dias)[3902] [106 2 107 22 108 59]
[01] - Ultra_Poção_de_Mana[409] [61 45 0 0 0 0]
[02] - [S]Caixa_Poção_de_Cura[3322] [61 30 0 0 0 0]
[03] - Trombeta_Mágica[3330] [61 119 0 0 0 0]
[04] - Ração_de_Fenrir[2436] [61 5 0 0 0 0]
[05] - Fenrir[2376] [128 55 100 60 10 0]
[06] - Gema_da_Siren[658] [0 0 0 0 0 0]
[07] - Chapéu(M)[1342] [43 0 59 0 59 0]
[08] - Baú_de_Experiência[4140] [61 236 0 0 0 0]
[09] - Ração_de_Fenrir[2436] [61 5 0 0 0 0]
[10] - Chapéu(M)[1342] [43 1 60 4 59 0]
[11] - Luvas(M)[1501] [43 1 72 15 2 24]
[12] - Pedido_de_Caça(Kult)[3435] [61 9 0 0 0 0]
[13] - Baú_de_Caça[4139] [61 236 0 0 0 0]
[14] - Frango_Assado[3314] [61 236 0 0 0 0]
[15] - Poeira_de_Lactolerium[413] [61 52 0 0 0 0]
[16] - Jóia_da_Absorção[3204] [61 7 0 0 0 0]
[17] - Jóia_da_Proteção[3205] [61 7 0 0 0 0]
[18] - Jóia_do_Poder[3206] [61 7 0 0 0 0]
[19] - Jóia_da_Precisão[3208] [61 7 0 0 0 0]
[60] - Bolsa_do_Andarilho[3467] [106 21 110 2 109 121]
[61] - Bolsa_do_Andarilho[3467] [106 21 110 2 109 121]
[63] - Marca_do_Assassino[547] [150 0 0 0 77 0]

[USUÁRIOS LOGADOS]
Nenhuma outra conta logada 

13:42:01 : [AeroDynamik] - Personagem AeroDynamik enviado ao mundo 2095x 2098y - Canal 2 - Cash da conta: 15918. PowerLevel: 4127
13:42:01 : [AeroDynamik] - Gold atual: 497834981. Classe: 3 Evolução: 0. Experiência: 4114840134. Nível: 399. Info: 0. GuildID: 0. CP: 75. Pontos de Contribuição: 0. Limite: 0
13:42:01 : [AeroDynamik] - Logou no personagem AeroDynamik com poção divina ativo. Validade: 21/2/2021 9:16:26
13:42:01 : [AeroDynamik] - Logou no personagem AeroDynamik com frango ativo. Tempo: 1024
13:42:01 : [AeroDynamik] - Logou no personagem AeroDynamik com baú de experiência ativo. Tempo: 2204
13:42:01 : [AeroDynamik] - [Mensagem do servidor]> O Kefra foi derrotado
13:42:01 : [AeroDynamik] - Enviado informações do personagem
13:42:02 : [AeroDynamik] - Comando "/day "
13:42:02 : [AeroDynamik] - [Mensagem do servidor]> !#11 2
13:42:11 : [AeroDynamik] - Teleportado para a posição 960 1761
13:42:14 : [AeroDynamik] - O usuï¿½rio nï¿½o enviou o pacote de integridade de macaddress
13:43:12 : [AeroDynamik] - Matou o mob Tauron. GenerID: 3990
13:43:13 : [AeroDynamik] - Matou o mob Tauron. GenerID: 3991
13:43:21 : [AeroDynamik] - Comando "/srv 1"
13:43:21 : [AeroDynamik] - Solicitou trocar para o servidor 1
13:43:21 : [AeroDynamik] - 2 Personagem foi desconectado. Permaneceu 00:01:26 minutos online
13:43:21 : [AeroDynamik] - Recebeu 1829 de gold em 1 mobs no total. Total de gold: 497835810
13:43:22 : =========================== NOVA SESSÃO ==========================
Tentativa de logar na conta (ADMIN5) - IP: 84.123.38.2 Mac: (0B:A7:7A:4E:00:4C). ClientId: 3
13:43:22 : Usuário logou no jogo com clientId 3. - Servidor 1. Gold do banco: 1000000000
13:43:22 : [INFORMAÇÕES DO BANCO]
Gold: 1000000000
[ 80] - Andaluz_N[2370] [10 10 100 60 10 0]
[ 85] - Aranha[2360] [245 26 39 20 0 0]
[ 90] - Ração_de_Aranha[2420] [61 120 0 0 0 0]
[ 95] - Resto_de_Oriharucon[419] [61 10 0 0 0 0]
[100] - Resto_de_Lactolerium[420] [59 46 59 14 59 61]
[105] - Poeira_de_Lactolerium[413] [61 214 0 0 0 0]
[200] - Caixa_do_Andarilho[3479] [106 21 110 2 109 121]
[201] - Caixa_do_Andarilho[3479] [106 21 110 2 109 121]

13:43:22 : Recebido informação do personagem completa.
13:43:22 : [AeroDynamik] - [INFORMAÇÕES DA CONTA]
Personagem online: AeroDynamik
Gold atual: 497835810
Level atual: 399
Experiência atual: 4114840136
Evolução atual: Unknown
Tempo online até o momento: 00 dias e 00:00:00 horas
Posição atual: 2097x 2106y

Pontos NT: 0
Entradas Hall: 0
Info: 0
Soul: 0
Divina: 0/0/0 0:0:0
Sephira: 0/0/0 0:0:0
Saude: 0/0/0 0:0:0
Escritura: 0/0/0 0:0:0
Revigorante: 0/0/0 0:0:0
LastGuildKickout: 0/0/0 0:0:0
[EQUIPAMENTOS]
[00] - Rogue[31] [43 0 31 0 1 1]
[01] - Chapéu(A)[1643] [43 237 3 25 26 18]
[02] - Peitoral(A)[1646] [43 237 2 30 71 70]
[03] - Calça(A)[1649] [43 237 2 30 71 70]
[04] - Braçadeira(A)[1652] [43 237 54 18 72 30]
[05] - Botas(A)[1655] [43 237 73 30 74 18]
[06] - Arco_Guardião[3556] [43 9 2 36 0 0]
[08] - Brinco_de_Titã[592] [43 9 0 0 0 0]
[09] - Amuleto_de_Prata[551] [43 9 2 99 0 0]
[10] - Pedra_Espiritual[633] [43 9 0 0 0 0]
[11] - Ankh_da_Glória[663] [43 9 0 0 0 0]
[12] - Conjunto_Esqueleto[4153] [96 21 2 21 0 32]
[14] - Grifo_Sangrento[2386] [116 97 100 60 10 0]

[INVENTÁRIO]
[00] - Fada_Vermelha(3dias)[3902] [106 2 107 22 108 59]
[01] - Ultra_Poção_de_Mana[409] [61 45 0 0 0 0]
[02] - [S]Caixa_Poção_de_Cura[3322] [61 30 0 0 0 0]
[03] - Trombeta_Mágica[3330] [61 119 0 0 0 0]
[04] - Ração_de_Fenrir[2436] [61 5 0 0 0 0]
[05] - Fenrir[2376] [128 55 100 60 10 0]
[06] - Gema_da_Siren[658] [0 0 0 0 0 0]
[07] - Chapéu(M)[1342] [43 0 59 0 59 0]
[08] - Baú_de_Experiência[4140] [61 236 0 0 0 0]
[09] - Ração_de_Fenrir[2436] [61 5 0 0 0 0]
[10] - Chapéu(M)[1342] [43 1 60 4 59 0]
[11] - Luvas(M)[1501] [43 1 72 15 2 24]
[12] - Pedido_de_Caça(Kult)[3435] [61 9 0 0 0 0]
[13] - Baú_de_Caça[4139] [61 236 0 0 0 0]
[14] - Frango_Assado[3314] [61 236 0 0 0 0]
[15] - Poeira_de_Lactolerium[413] [61 52 0 0 0 0]
[16] - Jóia_da_Absorção[3204] [61 7 0 0 0 0]
[17] - Jóia_da_Proteção[3205] [61 7 0 0 0 0]
[18] - Jóia_do_Poder[3206] [61 7 0 0 0 0]
[19] - Jóia_da_Precisão[3208] [61 7 0 0 0 0]
[60] - Bolsa_do_Andarilho[3467] [106 21 110 2 109 121]
[61] - Bolsa_do_Andarilho[3467] [106 21 110 2 109 121]
[63] - Marca_do_Assassino[547] [150 0 0 0 77 0]

[USUÁRIOS LOGADOS]
Nenhuma outra conta logada 

13:43:22 : [AeroDynamik] - Personagem AeroDynamik enviado ao mundo 2097x 2106y - Canal 1 - Cash da conta: 15918. PowerLevel: 4127
13:43:22 : [AeroDynamik] - Gold atual: 497835810. Classe: 3 Evolução: 0. Experiência: 4114840136. Nível: 399. Info: 0. GuildID: 0. CP: 75. Pontos de Contribuição: 0. Limite: 0
13:43:22 : [AeroDynamik] - Logou no personagem AeroDynamik com poção divina ativo. Validade: 21/2/2021 9:16:26
13:43:22 : [AeroDynamik] - Logou no personagem AeroDynamik com frango ativo. Tempo: 1014
13:43:22 : [AeroDynamik] - Logou no personagem AeroDynamik com baú de experiência ativo. Tempo: 2194
13:43:22 : [AeroDynamik] - [Mensagem do servidor]> A guild [Teste123] derrotou Kefra
13:43:23 : [AeroDynamik] - Comando "/day "
13:43:23 : [AeroDynamik] - [Mensagem do servidor]> !#11 2
13:43:32 : [AeroDynamik] - Teleportado para a posição 960 1761
13:43:35 : [AeroDynamik] - O usuï¿½rio nï¿½o enviou o pacote de integridade de macaddress
13:43:43 : [AeroDynamik] - ADMIN5 Recebeu lParam (WndProc) como 32. Erro possível: 10053. Desconectando o usuário.
13:43:43 : [AeroDynamik] - 3 Personagem foi desconectado. Permaneceu 00:00:20 minutos online