
14:17:46 : =========================== NOVA SESSÃO ==========================
Tentativa de logar na conta (ADMIN5) - IP: 84.123.38.2 Mac: (0B:A7:7A:4E:00:4C). ClientId: 4
14:17:46 : Usuário logou no jogo com clientId 4. - Servidor 2. Gold do banco: 1000000000
14:17:46 : [INFORMAÇÕES DO BANCO]
Gold: 1000000000
[  0] - Arco_Guardião[3556] [43 9 2 36 0 0]
[ 80] - Andaluz_N[2370] [10 10 100 60 10 0]
[ 85] - Aranha[2360] [245 26 39 20 0 0]
[ 90] - Ração_de_Aranha[2420] [61 120 0 0 0 0]
[ 95] - Resto_de_Oriharucon[419] [61 10 0 0 0 0]
[100] - Resto_de_Lactolerium[420] [59 46 59 14 59 61]
[105] - Poeira_de_Lactolerium[413] [61 214 0 0 0 0]
[200] - Caixa_do_Andarilho[3479] [106 21 110 2 109 121]
[201] - Caixa_do_Andarilho[3479] [106 21 110 2 109 121]

14:17:46 : [INFORMAÇÕES DA CONTA]
Personagem na seleção de personagem. Sem informações no momento
Tempo online até o momento: 00 dias e 00:00:01 horas

[USUÁRIOS LOGADOS]
Nenhuma outra conta logada 

14:17:51 : Solicitou ir ao mundo...
14:17:51 : Recebido pedido para entrar no jogo
14:17:51 : Recebido informação do personagem completa.
14:17:51 : [AeroDynamik] - [INFORMAÇÕES DA CONTA]
Personagem online: AeroDynamik
Gold atual: 497807439
Level atual: 399
Experiência atual: 4114840203
Evolução atual: Unknown
Tempo online até o momento: 00 dias e 00:00:05 horas
Posição atual: 2091x 2103y

Pontos NT: 0
Entradas Hall: 0
Info: 0
Soul: 0
Divina: 0/0/0 0:0:0
Sephira: 0/0/0 0:0:0
Saude: 0/0/0 0:0:0
Escritura: 0/0/0 0:0:0
Revigorante: 0/0/0 0:0:0
LastGuildKickout: 0/0/0 0:0:0
[EQUIPAMENTOS]
[00] - Rogue[31] [43 0 31 0 1 1]
[01] - Chapéu(A)[1643] [43 237 3 25 26 18]
[02] - Peitoral(A)[1646] [43 237 2 30 71 70]
[03] - Calça(A)[1649] [43 237 2 30 71 70]
[04] - Braçadeira(A)[1652] [43 237 54 18 72 30]
[05] - Botas(A)[1655] [43 237 73 30 74 18]
[06] - Arco[825] [2 45 43 1 0 0]
[08] - Brinco_de_Titã[592] [43 9 0 0 0 0]
[09] - Amuleto_de_Prata[551] [43 9 2 99 0 0]
[10] - Pedra_Espiritual[633] [43 9 0 0 0 0]
[11] - Ankh_da_Glória[663] [43 9 0 0 0 0]
[12] - Conjunto_Esqueleto[4153] [96 21 2 21 0 32]
[14] - Grifo_Sangrento[2386] [116 97 100 60 10 0]

[INVENTÁRIO]
[00] - Fada_Vermelha(3dias)[3902] [106 2 107 22 108 59]
[01] - Ultra_Poção_de_Mana[409] [61 43 0 0 0 0]
[02] - [S]Caixa_Poção_de_Cura[3322] [61 30 0 0 0 0]
[03] - Trombeta_Mágica[3330] [61 119 0 0 0 0]
[04] - Ração_de_Fenrir[2436] [61 5 0 0 0 0]
[05] - Fenrir[2376] [128 55 100 60 10 0]
[06] - Gema_da_Siren[658] [0 0 0 0 0 0]
[07] - Chapéu(M)[1342] [43 0 59 0 59 0]
[08] - Baú_de_Experiência[4140] [61 235 0 0 0 0]
[09] - Ração_de_Fenrir[2436] [61 5 0 0 0 0]
[10] - Chapéu(M)[1342] [43 1 60 4 59 0]
[11] - Luvas(M)[1501] [43 1 72 15 2 24]
[12] - Pedido_de_Caça(Kult)[3435] [61 9 0 0 0 0]
[13] - Baú_de_Caça[4139] [61 236 0 0 0 0]
[14] - Frango_Assado[3314] [61 235 0 0 0 0]
[15] - Calça(A)[1809] [43 0 71 50 59 0]
[16] - Jóia_da_Absorção[3204] [61 6 0 0 0 0]
[17] - Jóia_da_Proteção[3205] [61 6 0 0 0 0]
[18] - Jóia_do_Poder[3206] [61 6 0 0 0 0]
[19] - Jóia_da_Precisão[3208] [61 6 0 0 0 0]
[20] - Armadura(A)[1805] [43 0 71 40 60 4]
[21] - Jaqueta(N)[1554] [43 0 71 30 59 0]
[22] - Chapéu(N)[1551] [43 0 26 15 59 0]
[25] - Poeira_de_Lactolerium[413] [61 25 0 0 0 0]
[60] - Bolsa_do_Andarilho[3467] [106 21 110 2 109 121]
[61] - Bolsa_do_Andarilho[3467] [106 21 110 2 109 121]
[63] - Marca_do_Assassino[547] [150 0 0 0 77 0]

[USUÁRIOS LOGADOS]
Nenhuma outra conta logada 

14:17:51 : [AeroDynamik] - Personagem AeroDynamik enviado ao mundo 2091x 2103y - Canal 2 - Cash da conta: 15918. PowerLevel: 3677
14:17:51 : [AeroDynamik] - Gold atual: 497807439. Classe: 3 Evolução: 0. Experiência: 4114840203. Nível: 399. Info: 0. GuildID: 0. CP: 75. Pontos de Contribuição: 0. Limite: 0
14:17:51 : [AeroDynamik] - Logou no personagem AeroDynamik com poção divina ativo. Validade: 21/2/2021 9:16:26
14:17:51 : [AeroDynamik] - Logou no personagem AeroDynamik com frango ativo. Tempo: 1716
14:17:51 : [AeroDynamik] - Logou no personagem AeroDynamik com baú de experiência ativo. Tempo: 2882
14:17:51 : [AeroDynamik] - Resetado a contagem de entradas água! Day: 31-33. Total: 0
14:17:51 : [AeroDynamik] - Enviado informações do personagem
14:17:52 : [AeroDynamik] - Comando "/day "
14:17:52 : [AeroDynamik] - [Mensagem do servidor]> !#11 2
14:17:59 : [AeroDynamik] - O usuï¿½rio nï¿½o enviou o pacote de integridade de macaddress
14:18:10 : [AeroDynamik] - Teleportado para a posição 960 1761
14:18:22 : [AeroDynamik] - ADMIN5 Recebeu lParam (WndProc) como 32. Erro possível: 10053. Desconectando o usuário.
14:18:22 : [AeroDynamik] - 4 Personagem foi desconectado. Permaneceu 00:00:35 minutos online
14:26:32 : =========================== NOVA SESSÃO ==========================
Tentativa de logar na conta (ADMIN5) - IP: 84.123.38.2 Mac: (0B:A7:7A:4E:00:4C). ClientId: 4
14:26:32 : Usuário logou no jogo com clientId 4. - Servidor 2. Gold do banco: 1000000000
14:26:32 : [INFORMAÇÕES DO BANCO]
Gold: 1000000000
[  0] - Arco_Guardião[3556] [43 9 2 36 0 0]
[ 80] - Andaluz_N[2370] [10 10 100 60 10 0]
[ 85] - Aranha[2360] [245 26 39 20 0 0]
[ 90] - Ração_de_Aranha[2420] [61 120 0 0 0 0]
[ 95] - Resto_de_Oriharucon[419] [61 10 0 0 0 0]
[100] - Resto_de_Lactolerium[420] [59 46 59 14 59 61]
[105] - Poeira_de_Lactolerium[413] [61 214 0 0 0 0]
[200] - Caixa_do_Andarilho[3479] [106 21 110 2 109 121]
[201] - Caixa_do_Andarilho[3479] [106 21 110 2 109 121]

14:26:38 : Solicitou ir ao mundo...
14:26:38 : Recebido pedido para entrar no jogo
14:26:38 : Recebido informação do personagem completa.
14:26:38 : [AeroDynamik] - [INFORMAÇÕES DA CONTA]
Personagem online: AeroDynamik
Gold atual: 497806439
Level atual: 399
Experiência atual: 4114840203
Evolução atual: Unknown
Tempo online até o momento: 00 dias e 00:00:05 horas
Posição atual: 2088x 2103y

Pontos NT: 0
Entradas Hall: 0
Info: 0
Soul: 0
Divina: 0/0/0 0:0:0
Sephira: 0/0/0 0:0:0
Saude: 0/0/0 0:0:0
Escritura: 0/0/0 0:0:0
Revigorante: 0/0/0 0:0:0
LastGuildKickout: 0/0/0 0:0:0
[EQUIPAMENTOS]
[00] - Rogue[31] [43 0 31 0 1 1]
[01] - Chapéu(A)[1643] [43 237 3 25 26 18]
[02] - Peitoral(A)[1646] [43 237 2 30 71 70]
[03] - Calça(A)[1649] [43 237 2 30 71 70]
[04] - Braçadeira(A)[1652] [43 237 54 18 72 30]
[05] - Botas(A)[1655] [43 237 73 30 74 18]
[06] - Arco[825] [2 45 43 1 0 0]
[08] - Brinco_de_Titã[592] [43 9 0 0 0 0]
[09] - Amuleto_de_Prata[551] [43 9 2 99 0 0]
[10] - Pedra_Espiritual[633] [43 9 0 0 0 0]
[11] - Ankh_da_Glória[663] [43 9 0 0 0 0]
[12] - Conjunto_Esqueleto[4153] [96 21 2 21 0 32]
[14] - Grifo_Sangrento[2386] [116 97 100 60 10 0]

[INVENTÁRIO]
[00] - Fada_Vermelha(3dias)[3902] [106 2 107 22 108 59]
[01] - Ultra_Poção_de_Mana[409] [61 43 0 0 0 0]
[02] - [S]Caixa_Poção_de_Cura[3322] [61 30 0 0 0 0]
[03] - Trombeta_Mágica[3330] [61 119 0 0 0 0]
[04] - Ração_de_Fenrir[2436] [61 5 0 0 0 0]
[05] - Fenrir[2376] [128 55 100 60 10 0]
[06] - Gema_da_Siren[658] [0 0 0 0 0 0]
[07] - Chapéu(M)[1342] [43 0 59 0 59 0]
[08] - Baú_de_Experiência[4140] [61 235 0 0 0 0]
[09] - Ração_de_Fenrir[2436] [61 5 0 0 0 0]
[10] - Chapéu(M)[1342] [43 1 60 4 59 0]
[11] - Luvas(M)[1501] [43 1 72 15 2 24]
[12] - Pedido_de_Caça(Kult)[3435] [61 9 0 0 0 0]
[13] - Baú_de_Caça[4139] [61 236 0 0 0 0]
[14] - Frango_Assado[3314] [61 235 0 0 0 0]
[15] - Calça(A)[1809] [43 0 71 50 59 0]
[16] - Jóia_da_Absorção[3204] [61 6 0 0 0 0]
[17] - Jóia_da_Proteção[3205] [61 6 0 0 0 0]
[18] - Jóia_do_Poder[3206] [61 6 0 0 0 0]
[19] - Jóia_da_Precisão[3208] [61 6 0 0 0 0]
[20] - Armadura(A)[1805] [43 0 71 40 60 4]
[21] - Jaqueta(N)[1554] [43 0 71 30 59 0]
[22] - Chapéu(N)[1551] [43 0 26 15 59 0]
[25] - Poeira_de_Lactolerium[413] [61 25 0 0 0 0]
[60] - Bolsa_do_Andarilho[3467] [106 21 110 2 109 121]
[61] - Bolsa_do_Andarilho[3467] [106 21 110 2 109 121]
[63] - Marca_do_Assassino[547] [150 0 0 0 77 0]

[USUÁRIOS LOGADOS]
Nenhuma outra conta logada 

14:26:38 : [AeroDynamik] - Personagem AeroDynamik enviado ao mundo 2088x 2103y - Canal 2 - Cash da conta: 15918. PowerLevel: 3677
14:26:38 : [AeroDynamik] - Gold atual: 497806439. Classe: 3 Evolução: 0. Experiência: 4114840203. Nível: 399. Info: 0. GuildID: 0. CP: 75. Pontos de Contribuição: 0. Limite: 0
14:26:38 : [AeroDynamik] - Logou no personagem AeroDynamik com poção divina ativo. Validade: 21/2/2021 9:16:26
14:26:38 : [AeroDynamik] - Logou no personagem AeroDynamik com frango ativo. Tempo: 1712
14:26:38 : [AeroDynamik] - Logou no personagem AeroDynamik com baú de experiência ativo. Tempo: 2878
14:26:38 : [AeroDynamik] - Enviado informações do personagem
14:26:39 : [AeroDynamik] - Comando "/day "
14:26:39 : [AeroDynamik] - [Mensagem do servidor]> !#11 2
14:26:47 : [AeroDynamik] - O usuï¿½rio nï¿½o enviou o pacote de integridade de macaddress
14:26:50 : [AeroDynamik] - ADMIN5 Recebeu lParam (WndProc) como 32. Erro possível: 10053. Desconectando o usuário.
14:26:50 : [AeroDynamik] - 4 Personagem foi desconectado. Permaneceu 00:00:18 minutos online
14:27:34 : =========================== NOVA SESSÃO ==========================
Tentativa de logar na conta (ADMIN5) - IP: 84.123.38.2 Mac: (0B:A7:7A:4E:00:4C). ClientId: 2
14:27:34 : Usuário logou no jogo com clientId 2. - Servidor 2. Gold do banco: 1000000000
14:27:34 : [INFORMAÇÕES DO BANCO]
Gold: 1000000000
[  0] - Arco_Guardião[3556] [43 9 2 36 0 0]
[ 80] - Andaluz_N[2370] [10 10 100 60 10 0]
[ 85] - Aranha[2360] [245 26 39 20 0 0]
[ 90] - Ração_de_Aranha[2420] [61 120 0 0 0 0]
[ 95] - Resto_de_Oriharucon[419] [61 10 0 0 0 0]
[100] - Resto_de_Lactolerium[420] [59 46 59 14 59 61]
[105] - Poeira_de_Lactolerium[413] [61 214 0 0 0 0]
[200] - Caixa_do_Andarilho[3479] [106 21 110 2 109 121]
[201] - Caixa_do_Andarilho[3479] [106 21 110 2 109 121]

14:27:41 : Solicitou ir ao mundo...
14:27:41 : Recebido pedido para entrar no jogo
14:27:41 : Recebido informação do personagem completa.
14:27:41 : [AeroDynamik] - [INFORMAÇÕES DA CONTA]
Personagem online: AeroDynamik
Gold atual: 497806439
Level atual: 399
Experiência atual: 4114840203
Evolução atual: Unknown
Tempo online até o momento: 00 dias e 00:00:07 horas
Posição atual: 2091x 2099y

Pontos NT: 0
Entradas Hall: 0
Info: 0
Soul: 0
Divina: 0/0/0 0:0:0
Sephira: 0/0/0 0:0:0
Saude: 0/0/0 0:0:0
Escritura: 0/0/0 0:0:0
Revigorante: 0/0/0 0:0:0
LastGuildKickout: 0/0/0 0:0:0
[EQUIPAMENTOS]
[00] - Rogue[31] [43 0 31 0 1 1]
[01] - Chapéu(A)[1643] [43 237 3 25 26 18]
[02] - Peitoral(A)[1646] [43 237 2 30 71 70]
[03] - Calça(A)[1649] [43 237 2 30 71 70]
[04] - Braçadeira(A)[1652] [43 237 54 18 72 30]
[05] - Botas(A)[1655] [43 237 73 30 74 18]
[06] - Arco[825] [2 45 43 1 0 0]
[08] - Brinco_de_Titã[592] [43 9 0 0 0 0]
[09] - Amuleto_de_Prata[551] [43 9 2 99 0 0]
[10] - Pedra_Espiritual[633] [43 9 0 0 0 0]
[11] - Ankh_da_Glória[663] [43 9 0 0 0 0]
[12] - Conjunto_Esqueleto[4153] [96 21 2 21 0 32]
[14] - Grifo_Sangrento[2386] [116 97 100 60 10 0]

[INVENTÁRIO]
[00] - Fada_Vermelha(3dias)[3902] [106 2 107 22 108 59]
[01] - Ultra_Poção_de_Mana[409] [61 43 0 0 0 0]
[02] - [S]Caixa_Poção_de_Cura[3322] [61 30 0 0 0 0]
[03] - Trombeta_Mágica[3330] [61 119 0 0 0 0]
[04] - Ração_de_Fenrir[2436] [61 5 0 0 0 0]
[05] - Fenrir[2376] [128 55 100 60 10 0]
[06] - Gema_da_Siren[658] [0 0 0 0 0 0]
[07] - Chapéu(M)[1342] [43 0 59 0 59 0]
[08] - Baú_de_Experiência[4140] [61 235 0 0 0 0]
[09] - Ração_de_Fenrir[2436] [61 5 0 0 0 0]
[10] - Chapéu(M)[1342] [43 1 60 4 59 0]
[11] - Luvas(M)[1501] [43 1 72 15 2 24]
[12] - Pedido_de_Caça(Kult)[3435] [61 9 0 0 0 0]
[13] - Baú_de_Caça[4139] [61 236 0 0 0 0]
[14] - Frango_Assado[3314] [61 235 0 0 0 0]
[15] - Calça(A)[1809] [43 0 71 50 59 0]
[16] - Jóia_da_Absorção[3204] [61 6 0 0 0 0]
[17] - Jóia_da_Proteção[3205] [61 6 0 0 0 0]
[18] - Jóia_do_Poder[3206] [61 6 0 0 0 0]
[19] - Jóia_da_Precisão[3208] [61 6 0 0 0 0]
[20] - Armadura(A)[1805] [43 0 71 40 60 4]
[21] - Jaqueta(N)[1554] [43 0 71 30 59 0]
[22] - Chapéu(N)[1551] [43 0 26 15 59 0]
[25] - Poeira_de_Lactolerium[413] [61 25 0 0 0 0]
[60] - Bolsa_do_Andarilho[3467] [106 21 110 2 109 121]
[61] - Bolsa_do_Andarilho[3467] [106 21 110 2 109 121]
[63] - Marca_do_Assassino[547] [150 0 0 0 77 0]

[USUÁRIOS LOGADOS]
Nenhuma outra conta logada 

14:27:41 : [AeroDynamik] - Personagem AeroDynamik enviado ao mundo 2091x 2099y - Canal 2 - Cash da conta: 15918. PowerLevel: 3677
14:27:41 : [AeroDynamik] - Gold atual: 497806439. Classe: 3 Evolução: 0. Experiência: 4114840203. Nível: 399. Info: 0. GuildID: 0. CP: 75. Pontos de Contribuição: 0. Limite: 0
14:27:41 : [AeroDynamik] - Logou no personagem AeroDynamik com poção divina ativo. Validade: 21/2/2021 9:16:26
14:27:41 : [AeroDynamik] - Logou no personagem AeroDynamik com frango ativo. Tempo: 1711
14:27:41 : [AeroDynamik] - Logou no personagem AeroDynamik com baú de experiência ativo. Tempo: 2877
14:27:41 : [AeroDynamik] - Enviado informações do personagem
14:27:42 : [AeroDynamik] - Comando "/day "
14:27:42 : [AeroDynamik] - [Mensagem do servidor]> !#11 2
14:27:47 : [AeroDynamik] - O usuï¿½rio nï¿½o enviou o pacote de integridade de macaddress
14:27:57 : [AeroDynamik] - ADMIN5 Recebeu lParam (WndProc) como 32. Erro possível: 10053. Desconectando o usuário.
14:27:57 : [AeroDynamik] - 2 Personagem foi desconectado. Permaneceu 00:00:23 minutos online
14:29:01 : =========================== NOVA SESSÃO ==========================
Tentativa de logar na conta (ADMIN5) - IP: 84.123.38.2 Mac: (0B:A7:7A:4E:00:4C). ClientId: 1
14:29:01 : Usuário logou no jogo com clientId 1. - Servidor 1. Gold do banco: 1000000000
14:29:01 : [INFORMAÇÕES DO BANCO]
Gold: 1000000000
[  0] - Arco_Guardião[3556] [43 9 2 36 0 0]
[ 80] - Andaluz_N[2370] [10 10 100 60 10 0]
[ 85] - Aranha[2360] [245 26 39 20 0 0]
[ 90] - Ração_de_Aranha[2420] [61 120 0 0 0 0]
[ 95] - Resto_de_Oriharucon[419] [61 10 0 0 0 0]
[100] - Resto_de_Lactolerium[420] [59 46 59 14 59 61]
[105] - Poeira_de_Lactolerium[413] [61 214 0 0 0 0]
[200] - Caixa_do_Andarilho[3479] [106 21 110 2 109 121]
[201] - Caixa_do_Andarilho[3479] [106 21 110 2 109 121]

14:29:01 : [INFORMAÇÕES DA CONTA]
Personagem na seleção de personagem. Sem informações no momento
Tempo online até o momento: 00 dias e 00:00:01 horas

[USUÁRIOS LOGADOS]
Nenhuma outra conta logada 

14:29:09 : Solicitou ir ao mundo...
14:29:09 : Recebido pedido para entrar no jogo
14:29:09 : Recebido informação do personagem completa.
14:29:09 : [AeroDynamik] - [INFORMAÇÕES DA CONTA]
Personagem online: AeroDynamik
Gold atual: 497806439
Level atual: 399
Experiência atual: 4114840203
Evolução atual: Unknown
Tempo online até o momento: 00 dias e 00:00:08 horas
Posição atual: 2095x 2097y

Pontos NT: 0
Entradas Hall: 0
Info: 0
Soul: 0
Divina: 0/0/0 0:0:0
Sephira: 0/0/0 0:0:0
Saude: 0/0/0 0:0:0
Escritura: 0/0/0 0:0:0
Revigorante: 0/0/0 0:0:0
LastGuildKickout: 0/0/0 0:0:0
[EQUIPAMENTOS]
[00] - Rogue[31] [43 0 31 0 1 1]
[01] - Chapéu(A)[1643] [43 237 3 25 26 18]
[02] - Peitoral(A)[1646] [43 237 2 30 71 70]
[03] - Calça(A)[1649] [43 237 2 30 71 70]
[04] - Braçadeira(A)[1652] [43 237 54 18 72 30]
[05] - Botas(A)[1655] [43 237 73 30 74 18]
[06] - Arco[825] [2 45 43 1 0 0]
[08] - Brinco_de_Titã[592] [43 9 0 0 0 0]
[09] - Amuleto_de_Prata[551] [43 9 2 99 0 0]
[10] - Pedra_Espiritual[633] [43 9 0 0 0 0]
[11] - Ankh_da_Glória[663] [43 9 0 0 0 0]
[12] - Conjunto_Esqueleto[4153] [96 21 2 21 0 32]
[14] - Grifo_Sangrento[2386] [116 97 100 60 10 0]

[INVENTÁRIO]
[00] - Fada_Vermelha(3dias)[3902] [106 2 107 22 108 59]
[01] - Ultra_Poção_de_Mana[409] [61 43 0 0 0 0]
[02] - [S]Caixa_Poção_de_Cura[3322] [61 30 0 0 0 0]
[03] - Trombeta_Mágica[3330] [61 119 0 0 0 0]
[04] - Ração_de_Fenrir[2436] [61 5 0 0 0 0]
[05] - Fenrir[2376] [128 55 100 60 10 0]
[06] - Gema_da_Siren[658] [0 0 0 0 0 0]
[07] - Chapéu(M)[1342] [43 0 59 0 59 0]
[08] - Baú_de_Experiência[4140] [61 235 0 0 0 0]
[09] - Ração_de_Fenrir[2436] [61 5 0 0 0 0]
[10] - Chapéu(M)[1342] [43 1 60 4 59 0]
[11] - Luvas(M)[1501] [43 1 72 15 2 24]
[12] - Pedido_de_Caça(Kult)[3435] [61 9 0 0 0 0]
[13] - Baú_de_Caça[4139] [61 236 0 0 0 0]
[14] - Frango_Assado[3314] [61 235 0 0 0 0]
[15] - Calça(A)[1809] [43 0 71 50 59 0]
[16] - Jóia_da_Absorção[3204] [61 6 0 0 0 0]
[17] - Jóia_da_Proteção[3205] [61 6 0 0 0 0]
[18] - Jóia_do_Poder[3206] [61 6 0 0 0 0]
[19] - Jóia_da_Precisão[3208] [61 6 0 0 0 0]
[20] - Armadura(A)[1805] [43 0 71 40 60 4]
[21] - Jaqueta(N)[1554] [43 0 71 30 59 0]
[22] - Chapéu(N)[1551] [43 0 26 15 59 0]
[25] - Poeira_de_Lactolerium[413] [61 25 0 0 0 0]
[60] - Bolsa_do_Andarilho[3467] [106 21 110 2 109 121]
[61] - Bolsa_do_Andarilho[3467] [106 21 110 2 109 121]
[63] - Marca_do_Assassino[547] [150 0 0 0 77 0]

[USUÁRIOS LOGADOS]
Nenhuma outra conta logada 

14:29:09 : [AeroDynamik] - Personagem AeroDynamik enviado ao mundo 2095x 2097y - Canal 1 - Cash da conta: 15918. PowerLevel: 3677
14:29:09 : [AeroDynamik] - Gold atual: 497806439. Classe: 3 Evolução: 0. Experiência: 4114840203. Nível: 399. Info: 0. GuildID: 0. CP: 75. Pontos de Contribuição: 0. Limite: 0
14:29:09 : [AeroDynamik] - Logou no personagem AeroDynamik com poção divina ativo. Validade: 21/2/2021 9:16:26
14:29:09 : [AeroDynamik] - Logou no personagem AeroDynamik com frango ativo. Tempo: 1709
14:29:09 : [AeroDynamik] - Logou no personagem AeroDynamik com baú de experiência ativo. Tempo: 2875
14:29:09 : [AeroDynamik] - Enviado informações do personagem
14:29:10 : [AeroDynamik] - Comando "/day "
14:29:10 : [AeroDynamik] - [Mensagem do servidor]> !#11 2
14:29:24 : [AeroDynamik] - O usuï¿½rio nï¿½o enviou o pacote de integridade de macaddress
14:30:27 : [AeroDynamik] - ADMIN5 Recebeu lParam (WndProc) como 32. Erro possível: 0. Desconectando o usuário.
14:30:27 : [AeroDynamik] - 1 Personagem foi desconectado. Permaneceu 00:01:25 minutos online
14:37:50 : =========================== NOVA SESSÃO ==========================
Tentativa de logar na conta (ADMIN5) - IP: 84.123.38.2 Mac: (0B:A7:7A:4E:00:4C). ClientId: 2
14:37:50 : Usuário logou no jogo com clientId 2. - Servidor 2. Gold do banco: 1000000000
14:37:50 : [INFORMAÇÕES DO BANCO]
Gold: 1000000000
[  0] - Arco_Guardião[3556] [43 9 2 36 0 0]
[ 80] - Andaluz_N[2370] [10 10 100 60 10 0]
[ 85] - Aranha[2360] [245 26 39 20 0 0]
[ 90] - Ração_de_Aranha[2420] [61 120 0 0 0 0]
[ 95] - Resto_de_Oriharucon[419] [61 10 0 0 0 0]
[100] - Resto_de_Lactolerium[420] [59 46 59 14 59 61]
[105] - Poeira_de_Lactolerium[413] [61 214 0 0 0 0]
[200] - Caixa_do_Andarilho[3479] [106 21 110 2 109 121]
[201] - Caixa_do_Andarilho[3479] [106 21 110 2 109 121]

14:37:50 : [INFORMAÇÕES DA CONTA]
Personagem na seleção de personagem. Sem informações no momento
Tempo online até o momento: 00 dias e 00:00:01 horas

[USUÁRIOS LOGADOS]
Nenhuma outra conta logada 

14:37:55 : Solicitou ir ao mundo...
14:37:55 : Recebido pedido para entrar no jogo
14:37:55 : Recebido informação do personagem completa.
14:37:55 : [AeroDynamik] - [INFORMAÇÕES DA CONTA]
Personagem online: AeroDynamik
Gold atual: 497806439
Level atual: 399
Experiência atual: 4114840203
Evolução atual: Unknown
Tempo online até o momento: 00 dias e 00:00:05 horas
Posição atual: 2095x 2099y

Pontos NT: 0
Entradas Hall: 0
Info: 0
Soul: 0
Divina: 0/0/0 0:0:0
Sephira: 0/0/0 0:0:0
Saude: 0/0/0 0:0:0
Escritura: 0/0/0 0:0:0
Revigorante: 0/0/0 0:0:0
LastGuildKickout: 0/0/0 0:0:0
[EQUIPAMENTOS]
[00] - Rogue[31] [43 0 31 0 1 1]
[01] - Chapéu(A)[1643] [43 237 3 25 26 18]
[02] - Peitoral(A)[1646] [43 237 2 30 71 70]
[03] - Calça(A)[1649] [43 237 2 30 71 70]
[04] - Braçadeira(A)[1652] [43 237 54 18 72 30]
[05] - Botas(A)[1655] [43 237 73 30 74 18]
[06] - Arco[825] [2 45 43 1 0 0]
[08] - Brinco_de_Titã[592] [43 9 0 0 0 0]
[09] - Amuleto_de_Prata[551] [43 9 2 99 0 0]
[10] - Pedra_Espiritual[633] [43 9 0 0 0 0]
[11] - Ankh_da_Glória[663] [43 9 0 0 0 0]
[12] - Conjunto_Esqueleto[4153] [96 21 2 21 0 32]
[14] - Grifo_Sangrento[2386] [116 97 100 60 10 0]

[INVENTÁRIO]
[00] - Fada_Vermelha(3dias)[3902] [106 2 107 22 108 59]
[01] - Ultra_Poção_de_Mana[409] [61 43 0 0 0 0]
[02] - [S]Caixa_Poção_de_Cura[3322] [61 30 0 0 0 0]
[03] - Trombeta_Mágica[3330] [61 119 0 0 0 0]
[04] - Ração_de_Fenrir[2436] [61 5 0 0 0 0]
[05] - Fenrir[2376] [128 55 100 60 10 0]
[06] - Gema_da_Siren[658] [0 0 0 0 0 0]
[07] - Chapéu(M)[1342] [43 0 59 0 59 0]
[08] - Baú_de_Experiência[4140] [61 235 0 0 0 0]
[09] - Ração_de_Fenrir[2436] [61 5 0 0 0 0]
[10] - Chapéu(M)[1342] [43 1 60 4 59 0]
[11] - Luvas(M)[1501] [43 1 72 15 2 24]
[12] - Pedido_de_Caça(Kult)[3435] [61 9 0 0 0 0]
[13] - Baú_de_Caça[4139] [61 236 0 0 0 0]
[14] - Frango_Assado[3314] [61 235 0 0 0 0]
[15] - Calça(A)[1809] [43 0 71 50 59 0]
[16] - Jóia_da_Absorção[3204] [61 6 0 0 0 0]
[17] - Jóia_da_Proteção[3205] [61 6 0 0 0 0]
[18] - Jóia_do_Poder[3206] [61 6 0 0 0 0]
[19] - Jóia_da_Precisão[3208] [61 6 0 0 0 0]
[20] - Armadura(A)[1805] [43 0 71 40 60 4]
[21] - Jaqueta(N)[1554] [43 0 71 30 59 0]
[22] - Chapéu(N)[1551] [43 0 26 15 59 0]
[25] - Poeira_de_Lactolerium[413] [61 25 0 0 0 0]
[60] - Bolsa_do_Andarilho[3467] [106 21 110 2 109 121]
[61] - Bolsa_do_Andarilho[3467] [106 21 110 2 109 121]
[63] - Marca_do_Assassino[547] [150 0 0 0 77 0]

[USUÁRIOS LOGADOS]
Nenhuma outra conta logada 

14:37:55 : [AeroDynamik] - Personagem AeroDynamik enviado ao mundo 2095x 2099y - Canal 2 - Cash da conta: 15918. PowerLevel: 3677
14:37:55 : [AeroDynamik] - Gold atual: 497806439. Classe: 3 Evolução: 0. Experiência: 4114840203. Nível: 399. Info: 0. GuildID: 0. CP: 75. Pontos de Contribuição: 0. Limite: 0
14:37:55 : [AeroDynamik] - Logou no personagem AeroDynamik com poção divina ativo. Validade: 21/2/2021 9:16:26
14:37:55 : [AeroDynamik] - Logou no personagem AeroDynamik com frango ativo. Tempo: 1700
14:37:55 : [AeroDynamik] - Logou no personagem AeroDynamik com baú de experiência ativo. Tempo: 2866
14:37:55 : [AeroDynamik] - Enviado informações do personagem
14:37:56 : [AeroDynamik] - Comando "/day "
14:37:56 : [AeroDynamik] - [Mensagem do servidor]> !#11 2
14:38:03 : [AeroDynamik] - O usuï¿½rio nï¿½o enviou o pacote de integridade de macaddress
14:38:14 : [AeroDynamik] - ADMIN5 Recebeu lParam (WndProc) como 32. Erro possível: 10053. Desconectando o usuário.
14:38:14 : [AeroDynamik] - 2 Personagem foi desconectado. Permaneceu 00:00:24 minutos online
14:41:19 : =========================== NOVA SESSÃO ==========================
Tentativa de logar na conta (ADMIN5) - IP: 84.123.38.2 Mac: (0B:A7:7A:4E:00:4C). ClientId: 2
14:41:19 : Usuário logou no jogo com clientId 2. - Servidor 2. Gold do banco: 1000000000
14:41:19 : [INFORMAÇÕES DO BANCO]
Gold: 1000000000
[  0] - Arco_Guardião[3556] [43 9 2 36 0 0]
[ 80] - Andaluz_N[2370] [10 10 100 60 10 0]
[ 85] - Aranha[2360] [245 26 39 20 0 0]
[ 90] - Ração_de_Aranha[2420] [61 120 0 0 0 0]
[ 95] - Resto_de_Oriharucon[419] [61 10 0 0 0 0]
[100] - Resto_de_Lactolerium[420] [59 46 59 14 59 61]
[105] - Poeira_de_Lactolerium[413] [61 214 0 0 0 0]
[200] - Caixa_do_Andarilho[3479] [106 21 110 2 109 121]
[201] - Caixa_do_Andarilho[3479] [106 21 110 2 109 121]

14:41:24 : Solicitou ir ao mundo...
14:41:24 : Recebido pedido para entrar no jogo
14:41:24 : Recebido informação do personagem completa.
14:41:24 : [AeroDynamik] - [INFORMAÇÕES DA CONTA]
Personagem online: AeroDynamik
Gold atual: 497806439
Level atual: 399
Experiência atual: 4114840203
Evolução atual: Unknown
Tempo online até o momento: 00 dias e 00:00:06 horas
Posição atual: 2088x 2101y

Pontos NT: 0
Entradas Hall: 0
Info: 0
Soul: 0
Divina: 0/0/0 0:0:0
Sephira: 0/0/0 0:0:0
Saude: 0/0/0 0:0:0
Escritura: 0/0/0 0:0:0
Revigorante: 0/0/0 0:0:0
LastGuildKickout: 0/0/0 0:0:0
[EQUIPAMENTOS]
[00] - Rogue[31] [43 0 31 0 1 1]
[01] - Chapéu(A)[1643] [43 237 3 25 26 18]
[02] - Peitoral(A)[1646] [43 237 2 30 71 70]
[03] - Calça(A)[1649] [43 237 2 30 71 70]
[04] - Braçadeira(A)[1652] [43 237 54 18 72 30]
[05] - Botas(A)[1655] [43 237 73 30 74 18]
[06] - Arco[825] [2 45 43 1 0 0]
[08] - Brinco_de_Titã[592] [43 9 0 0 0 0]
[09] - Amuleto_de_Prata[551] [43 9 2 99 0 0]
[10] - Pedra_Espiritual[633] [43 9 0 0 0 0]
[11] - Ankh_da_Glória[663] [43 9 0 0 0 0]
[12] - Conjunto_Esqueleto[4153] [96 21 2 21 0 32]
[14] - Grifo_Sangrento[2386] [116 97 100 60 10 0]

[INVENTÁRIO]
[00] - Fada_Vermelha(3dias)[3902] [106 2 107 22 108 59]
[01] - Ultra_Poção_de_Mana[409] [61 43 0 0 0 0]
[02] - [S]Caixa_Poção_de_Cura[3322] [61 30 0 0 0 0]
[03] - Trombeta_Mágica[3330] [61 119 0 0 0 0]
[04] - Ração_de_Fenrir[2436] [61 5 0 0 0 0]
[05] - Fenrir[2376] [128 55 100 60 10 0]
[06] - Gema_da_Siren[658] [0 0 0 0 0 0]
[07] - Chapéu(M)[1342] [43 0 59 0 59 0]
[08] - Baú_de_Experiência[4140] [61 235 0 0 0 0]
[09] - Ração_de_Fenrir[2436] [61 5 0 0 0 0]
[10] - Chapéu(M)[1342] [43 1 60 4 59 0]
[11] - Luvas(M)[1501] [43 1 72 15 2 24]
[12] - Pedido_de_Caça(Kult)[3435] [61 9 0 0 0 0]
[13] - Baú_de_Caça[4139] [61 236 0 0 0 0]
[14] - Frango_Assado[3314] [61 235 0 0 0 0]
[15] - Calça(A)[1809] [43 0 71 50 59 0]
[16] - Jóia_da_Absorção[3204] [61 6 0 0 0 0]
[17] - Jóia_da_Proteção[3205] [61 6 0 0 0 0]
[18] - Jóia_do_Poder[3206] [61 6 0 0 0 0]
[19] - Jóia_da_Precisão[3208] [61 6 0 0 0 0]
[20] - Armadura(A)[1805] [43 0 71 40 60 4]
[21] - Jaqueta(N)[1554] [43 0 71 30 59 0]
[22] - Chapéu(N)[1551] [43 0 26 15 59 0]
[25] - Poeira_de_Lactolerium[413] [61 25 0 0 0 0]
[60] - Bolsa_do_Andarilho[3467] [106 21 110 2 109 121]
[61] - Bolsa_do_Andarilho[3467] [106 21 110 2 109 121]
[63] - Marca_do_Assassino[547] [150 0 0 0 77 0]

[USUÁRIOS LOGADOS]
Nenhuma outra conta logada 

14:41:24 : [AeroDynamik] - Personagem AeroDynamik enviado ao mundo 2088x 2101y - Canal 2 - Cash da conta: 15918. PowerLevel: 3677
14:41:24 : [AeroDynamik] - Gold atual: 497806439. Classe: 3 Evolução: 0. Experiência: 4114840203. Nível: 399. Info: 0. GuildID: 0. CP: 75. Pontos de Contribuição: 0. Limite: 0
14:41:24 : [AeroDynamik] - Logou no personagem AeroDynamik com poção divina ativo. Validade: 21/2/2021 9:16:26
14:41:24 : [AeroDynamik] - Logou no personagem AeroDynamik com frango ativo. Tempo: 1698
14:41:24 : [AeroDynamik] - Logou no personagem AeroDynamik com baú de experiência ativo. Tempo: 2864
14:41:24 : [AeroDynamik] - Enviado informações do personagem
14:41:25 : [AeroDynamik] - Comando "/day "
14:41:25 : [AeroDynamik] - [Mensagem do servidor]> !#11 2
14:41:39 : [AeroDynamik] - O usuï¿½rio nï¿½o enviou o pacote de integridade de macaddress
14:41:51 : [AeroDynamik] - Usado buff Escudo Dourado. Gold consumido: 25500. Gold atual: 497780939
14:41:53 : [AeroDynamik] - Matou o mob Gremlin. GenerID: 433
14:41:55 : [AeroDynamik] - Usado buff Escudo Dourado. Gold consumido: 25500. Gold atual: 497755439
14:41:58 : [AeroDynamik] - Matou o mob Gremlin. GenerID: 424
14:41:59 : [AeroDynamik] - Matou o mob Gremlin. GenerID: 425
14:42:01 : [AeroDynamik] - Usado buff Escudo Dourado. Gold consumido: 25500. Gold atual: 497729939
14:42:04 : [AeroDynamik] - Matou o mob Gremlin. GenerID: 431
14:42:05 : [AeroDynamik] - Matou o mob Gremlin. GenerID: 433
14:42:07 : [AeroDynamik] - Matou o mob Gremlin. GenerID: 441
14:42:08 : [AeroDynamik] - Matou o mob Gremlin . GenerID: 440
14:42:11 : [AeroDynamik] - Matou o mob Gremlin. GenerID: 448
14:42:15 : [AeroDynamik] - Matou o mob Seguidor. GenerID: 3407
14:42:16 : [AeroDynamik] - Matou o mob Gremlin. GenerID: 448
14:42:18 : [AeroDynamik] - Matou o mob Gremlin . GenerID: 440
14:42:19 : [AeroDynamik] - Matou o mob Seguidor. GenerID: 3407
14:42:19 : [AeroDynamik] - Dropado item Pedaço_do_Círculo_Divino [447] [59 59 59 122 59 77] em 2220x 2116y - Seguidor (1/60)
14:42:27 : [AeroDynamik] - Matou o mob Gremlin. GenerID: 448
14:42:28 : [AeroDynamik] - Matou o mob Gremlin . GenerID: 440
14:42:36 : [AeroDynamik] - Matou o mob Krill. GenerID: 471
14:42:41 : [AeroDynamik] - Matou o mob Krill. GenerID: 506
14:42:42 : [AeroDynamik] - Comando "/gm +move armia"
14:42:42 : [AeroDynamik] - Teleportado para a posição 2100 2100
14:42:44 : [AeroDynamik] - Clicado no NPC [Guarda Carga]. Face 106. Race: 2. GenerateId: 3255. Posição do usuário: 2101x 2112y. Posição do NPC: 2102x 2113y
14:43:34 : [AeroDynamik] - Clicado no NPC [Guarda Carga]. Face 106. Race: 2. GenerateId: 3255. Posição do usuário: 2104x 2114y. Posição do NPC: 2102x 2113y
14:43:42 : [AeroDynamik] - Clicado no NPC [Guarda Carga]. Face 106. Race: 2. GenerateId: 3255. Posição do usuário: 2102x 2112y. Posição do NPC: 2102x 2113y
14:44:03 : [AeroDynamik] - Teleportado para a posição 960 1761
14:44:22 : [AeroDynamik] - ADMIN5 Recebeu lParam (WndProc) como 32. Erro possível: 10053. Desconectando o usuário.
14:44:22 : [AeroDynamik] - 2 Personagem foi desconectado. Permaneceu 00:03:01 minutos online
14:53:23 : =========================== NOVA SESSÃO ==========================
Tentativa de logar na conta (ADMIN5) - IP: 84.123.38.2 Mac: (0B:A7:7A:4E:00:4C). ClientId: 1
14:53:23 : Usuário logou no jogo com clientId 1. - Servidor 2. Gold do banco: 1000000000
14:53:23 : [INFORMAÇÕES DO BANCO]
Gold: 1000000000
[  0] - Arco_Guardião[3556] [43 9 2 36 0 0]
[ 80] - Andaluz_N[2370] [10 10 100 60 10 0]
[ 85] - Aranha[2360] [245 26 39 20 0 0]
[ 90] - Ração_de_Aranha[2420] [61 120 0 0 0 0]
[ 95] - Resto_de_Oriharucon[419] [61 10 0 0 0 0]
[100] - Resto_de_Lactolerium[420] [59 46 59 14 59 61]
[105] - Poeira_de_Lactolerium[413] [61 214 0 0 0 0]
[200] - Caixa_do_Andarilho[3479] [106 21 110 2 109 121]
[201] - Caixa_do_Andarilho[3479] [106 21 110 2 109 121]

14:53:27 : Solicitou ir ao mundo...
14:53:27 : Recebido pedido para entrar no jogo
14:53:27 : Recebido informação do personagem completa.
14:53:27 : [AeroDynamik] - [INFORMAÇÕES DA CONTA]
Personagem online: AeroDynamik
Gold atual: 497728939
Level atual: 399
Experiência atual: 4114841163
Evolução atual: Unknown
Tempo online até o momento: 00 dias e 00:00:04 horas
Posição atual: 2094x 2096y

Pontos NT: 0
Entradas Hall: 0
Info: 0
Soul: 0
Divina: 0/0/0 0:0:0
Sephira: 0/0/0 0:0:0
Saude: 0/0/0 0:0:0
Escritura: 0/0/0 0:0:0
Revigorante: 0/0/0 0:0:0
LastGuildKickout: 0/0/0 0:0:0
[EQUIPAMENTOS]
[00] - Rogue[31] [43 0 31 0 1 1]
[01] - Chapéu(A)[1643] [43 237 3 25 26 18]
[02] - Peitoral(A)[1646] [43 237 2 30 71 70]
[03] - Calça(A)[1649] [43 237 2 30 71 70]
[04] - Braçadeira(A)[1652] [43 237 54 18 72 30]
[05] - Botas(A)[1655] [43 237 73 30 74 18]
[06] - Arco[825] [2 45 43 1 0 0]