
10:50:01 : =========================== NOVA SESSÃO ==========================
Tentativa de logar na conta (ADMIN5) - IP: 84.123.38.2 Mac: (0B:A7:7A:4E:00:4C). ClientId: 5
10:50:01 : Usuário logou no jogo com clientId 5. - Servidor 1. Gold do banco: 1000000000
10:50:01 : [INFORMAÇÕES DO BANCO]
Gold: 1000000000
[ 80] - Andaluz_N[2370] [10 10 100 60 10 0]
[ 85] - Aranha[2360] [245 26 39 20 0 0]
[ 90] - Ração_de_Aranha[2420] [61 120 0 0 0 0]
[ 95] - Resto_de_Oriharucon[419] [61 10 0 0 0 0]
[100] - Resto_de_Lactolerium[420] [59 46 59 14 59 61]
[105] - Poeira_de_Lactolerium[413] [61 214 0 0 0 0]
[200] - Caixa_do_Andarilho[3479] [106 21 110 2 109 121]
[201] - Caixa_do_Andarilho[3479] [106 21 110 2 109 121]

10:50:01 : [INFORMAÇÕES DA CONTA]
Personagem na seleção de personagem. Sem informações no momento
Tempo online até o momento: 00 dias e 00:00:01 horas

[USUÁRIOS LOGADOS]
Nenhuma outra conta logada 

10:50:09 : Solicitou ir ao mundo...
10:50:09 : Recebido pedido para entrar no jogo
10:50:09 : Recebido informação do personagem completa.
10:50:09 : [AeroDynamik] - [INFORMAÇÕES DA CONTA]
Personagem online: AeroDynamik
Gold atual: 251335324
Level atual: 374
Experiência atual: 2788686328
Evolução atual: Unknown
Tempo online até o momento: 00 dias e 00:00:07 horas
Posição atual: 2086x 2102y

Pontos NT: 0
Entradas Hall: 0
Info: 0
Soul: 0
Divina: 0/0/0 0:0:0
Sephira: 0/0/0 0:0:0
Saude: 0/0/0 0:0:0
Escritura: 0/0/0 0:0:0
Revigorante: 0/0/0 0:0:0
LastGuildKickout: 0/0/0 0:0:0
[EQUIPAMENTOS]
[00] - Rogue[31] [43 0 31 0 1 1]
[01] - Chapéu(A)[1643] [43 9 3 25 26 18]
[02] - Peitoral(A)[1646] [43 9 2 30 71 70]
[03] - Calça(A)[1649] [43 9 2 30 71 70]
[04] - Braçadeira(A)[1652] [43 9 54 18 72 30]
[05] - Botas(A)[1655] [43 9 73 30 74 18]
[06] - Arco_Guardião[3556] [43 9 2 36 0 0]
[08] - Brinco_de_Titã[592] [43 9 0 0 0 0]
[09] - Amuleto_de_Prata[551] [43 9 2 99 0 0]
[10] - Pedra_Espiritual[633] [43 9 0 0 0 0]
[11] - Ankh_da_Glória[663] [43 9 0 0 0 0]
[12] - Conjunto_Esqueleto[4153] [96 21 2 21 0 32]
[14] - Grifo_Sangrento[2386] [22 100 100 60 10 0]

[INVENTÁRIO]
[00] - Fada_Vermelha(3dias)[3902] [106 2 107 22 108 59]
[01] - Ultra_Poção_de_Mana[409] [61 86 0 0 0 0]
[02] - [S]Caixa_Poção_de_Cura[3322] [61 31 0 0 0 0]
[03] - Ração_de_Fenrir[2436] [61 3 0 0 0 0]
[04] - Ração_de_Fenrir[2436] [61 5 0 0 0 0]
[05] - Fenrir[2376] [128 55 100 60 10 0]
[06] - Gema_da_Siren[658] [0 0 0 0 0 0]
[08] - Baú_de_Experiência[4140] [61 236 0 0 0 0]
[09] - Ração_de_Fenrir[2436] [61 5 0 0 0 0]
[13] - Baú_de_Caça[4139] [61 236 0 0 0 0]
[14] - Frango_Assado[3314] [61 236 0 0 0 0]
[15] - Jóia_da_Precisão[3208] [61 9 0 0 0 0]
[16] - Jóia_da_Absorção[3204] [61 9 0 0 0 0]
[17] - Jóia_da_Proteção[3205] [61 9 0 0 0 0]
[18] - Jóia_do_Poder[3206] [61 9 0 0 0 0]
[27] - Ração_de_Grifo[2430] [61 4 0 0 0 0]
[28] - Ração_de_Grifo[2430] [61 5 0 0 0 0]
[29] - Ração_de_Grifo[2430] [61 5 0 0 0 0]
[60] - Bolsa_do_Andarilho[3467] [106 21 110 2 109 121]
[61] - Bolsa_do_Andarilho[3467] [106 21 110 2 109 121]
[63] - Marca_do_Assassino[547] [150 0 0 0 77 0]

[USUÁRIOS LOGADOS]
Nenhuma outra conta logada 

10:50:09 : [AeroDynamik] - Personagem AeroDynamik enviado ao mundo 2086x 2102y - Canal 1 - Cash da conta: 15918. PowerLevel: 4066
10:50:09 : [AeroDynamik] - Gold atual: 251335324. Classe: 3 Evolução: 0. Experiência: 2788686328. Nível: 374. Info: 0. GuildID: 0. CP: 75. Pontos de Contribuição: 0. Limite: 0
10:50:09 : [AeroDynamik] - Logou no personagem AeroDynamik com poção divina ativo. Validade: 21/2/2021 9:16:26
10:50:09 : [AeroDynamik] - Logou no personagem AeroDynamik com frango ativo. Tempo: 1713
10:50:09 : [AeroDynamik] - Logou no personagem AeroDynamik com baú de experiência ativo. Tempo: 2893
10:50:09 : [AeroDynamik] - Resetado a contagem de entradas água! Day: 21-22. Total: 1
10:50:09 : [AeroDynamik] - [Mensagem do servidor]> A guild [Teste123] derrotou Kefra
10:50:09 : [AeroDynamik] - Enviado informações do personagem
10:50:10 : [AeroDynamik] - Comando "/day "
10:50:10 : [AeroDynamik] - [Mensagem do servidor]> !#11 2
10:50:24 : [AeroDynamik] - O usuï¿½rio nï¿½o enviou o pacote de integridade de macaddress
10:50:43 : [AeroDynamik] - Moveu item Botas(A) [1655] [43 9 73 30 74 18] do tipo INVENTÁRIO do slot 19 para tipo INVENTÁRIO slot 39
10:50:43 : [AeroDynamik] - Moveu item  [0] [0 0 0 0 0 0] do tipo INVENTÁRIO do slot 19 para tipo INVENTÁRIO slot 39
10:50:46 : [AeroDynamik] - Moveu item Botas(A) [1655] [43 9 73 30 74 18] do tipo INVENTÁRIO do slot 19 para tipo INVENTÁRIO slot 39
10:50:46 : [AeroDynamik] - Moveu item  [0] [0 0 0 0 0 0] do tipo INVENTÁRIO do slot 19 para tipo INVENTÁRIO slot 39
10:50:50 : [AeroDynamik] - Moveu item Botas(A) [1655] [43 9 73 30 74 18] do tipo INVENTÁRIO do slot 19 para tipo INVENTÁRIO slot 39
10:50:54 : [AeroDynamik] - Moveu item Peitoral(A) [1646] [43 9 2 30 71 70] do tipo INVENTÁRIO do slot 10 para tipo INVENTÁRIO slot 36
10:50:59 : [AeroDynamik] - Moveu item Calça(A) [1649] [43 9 2 30 71 70] do tipo INVENTÁRIO do slot 11 para tipo INVENTÁRIO slot 37
10:51:02 : [AeroDynamik] - Moveu item Chapéu(A) [1643] [43 9 3 25 26 18] do tipo INVENTÁRIO do slot 7 para tipo INVENTÁRIO slot 35
10:51:05 : [AeroDynamik] - Moveu item Braçadeira(A) [1652] [43 9 54 18 72 30] do tipo INVENTÁRIO do slot 12 para tipo INVENTÁRIO slot 38
10:51:44 : [AeroDynamik] - Item Ração_de_Grifo deletado [2430] [61 4 0 0 0 0]. Slot 27
10:51:45 : [AeroDynamik] - Item Ração_de_Grifo deletado [2430] [61 5 0 0 0 0]. Slot 28
10:51:46 : [AeroDynamik] - Item Ração_de_Grifo deletado [2430] [61 5 0 0 0 0]. Slot 29
10:52:03 : [AeroDynamik] - Teleportado para a posição 960 1761
10:52:07 : [AeroDynamik] - Teleportado para a posição 2482 1717
10:52:20 : [AeroDynamik] - Moveu item Chapéu(A) [1643] [43 9 3 25 26 18] do tipo EQUIPAMENTO do slot 1 para tipo INVENTÁRIO slot 45
10:52:20 : [AeroDynamik] - Moveu item Peitoral(A) [1646] [43 9 2 30 71 70] do tipo EQUIPAMENTO do slot 2 para tipo INVENTÁRIO slot 50
10:52:21 : [AeroDynamik] - Moveu item Braçadeira(A) [1652] [43 9 54 18 72 30] do tipo EQUIPAMENTO do slot 4 para tipo INVENTÁRIO slot 55
10:52:21 : [AeroDynamik] - Moveu item Calça(A) [1649] [43 9 2 30 71 70] do tipo EQUIPAMENTO do slot 3 para tipo INVENTÁRIO slot 46
10:52:22 : [AeroDynamik] - Moveu item Botas(A) [1655] [43 9 73 30 74 18] do tipo EQUIPAMENTO do slot 5 para tipo INVENTÁRIO slot 51
10:52:26 : [AeroDynamik] - Clicado no NPC [Aylin]. Face 55. Race: 2. GenerateId: 3287. Posição do usuário: 2530x 1725y. Posição do NPC: 2529x 1725y
10:52:33 : [AeroDynamik] - Aylin - Item 0 Chapéu(A) [1643] [43 9 3 25 26 18]
10:52:33 : [AeroDynamik] - Aylin - Item 1 Chapéu(A) [1643] [43 9 3 25 26 18]
10:52:33 : [AeroDynamik] - Aylin - Item 2 Pedra_do_Sábio [1774] [0 0 0 0 0 0]
10:52:33 : [AeroDynamik] - Aylin - Item 3 Garnet [2444] [0 0 0 0 0 0]
10:52:33 : [AeroDynamik] - Aylin - Item 4 Garnet [2444] [0 0 0 0 0 0]
10:52:33 : [AeroDynamik] - Aylin - Item 5 Garnet [2444] [0 0 0 0 0 0]
10:52:33 : [AeroDynamik] - Aylin - Item 6 Garnet [2444] [0 0 0 0 0 0]
10:52:33 : [AeroDynamik] - [Mensagem do servidor]> Houve uma falha na composição
10:52:33 : [AeroDynamik] - [Mensagem do servidor]: Jogador AeroDynamik falhou a composição do item Chapéu(A) +10
10:52:33 : [AeroDynamik] - Aylin - Falha na composição - 62/45
10:52:34 : [AeroDynamik] - Clicado no NPC [Aylin]. Face 55. Race: 2. GenerateId: 3287. Posição do usuário: 2530x 1725y. Posição do NPC: 2529x 1725y
10:52:44 : [AeroDynamik] - Aylin - Item 0 Peitoral(A) [1646] [43 9 2 30 71 70]
10:52:44 : [AeroDynamik] - Aylin - Item 1 Peitoral(A) [1646] [43 9 2 30 71 70]
10:52:44 : [AeroDynamik] - Aylin - Item 2 Pedra_do_Sábio [1774] [0 0 0 0 0 0]
10:52:44 : [AeroDynamik] - Aylin - Item 3 Garnet [2444] [0 0 0 0 0 0]
10:52:44 : [AeroDynamik] - Aylin - Item 4 Garnet [2444] [0 0 0 0 0 0]
10:52:44 : [AeroDynamik] - Aylin - Item 5 Garnet [2444] [0 0 0 0 0 0]
10:52:44 : [AeroDynamik] - Aylin - Item 6 Garnet [2444] [0 0 0 0 0 0]
10:52:44 : [AeroDynamik] - Aylin - Sucesso na composição do item Peitoral(A) +10 - (1646) 43 233 2 30 71 70 - 4/45
10:52:44 : [AeroDynamik] - Clicado no NPC [Aylin]. Face 55. Race: 2. GenerateId: 3287. Posição do usuário: 2530x 1725y. Posição do NPC: 2529x 1725y
10:52:54 : [AeroDynamik] - Aylin - Item 0 Calça(A) [1649] [43 9 2 30 71 70]
10:52:54 : [AeroDynamik] - Aylin - Item 1 Calça(A) [1649] [43 9 2 30 71 70]
10:52:54 : [AeroDynamik] - Aylin - Item 2 Pedra_do_Sábio [1774] [0 0 0 0 0 0]
10:52:54 : [AeroDynamik] - Aylin - Item 3 Garnet [2444] [0 0 0 0 0 0]
10:52:54 : [AeroDynamik] - Aylin - Item 4 Garnet [2444] [0 0 0 0 0 0]
10:52:54 : [AeroDynamik] - Aylin - Item 5 Garnet [2444] [0 0 0 0 0 0]
10:52:54 : [AeroDynamik] - Aylin - Item 6 Garnet [2444] [0 0 0 0 0 0]
10:52:54 : [AeroDynamik] - Aylin - Sucesso na composição do item Calça(A) +10 - (1649) 43 233 2 30 71 70 - 7/45
10:52:55 : [AeroDynamik] - Clicado no NPC [Aylin]. Face 55. Race: 2. GenerateId: 3287. Posição do usuário: 2530x 1725y. Posição do NPC: 2529x 1725y
10:53:06 : [AeroDynamik] - Aylin - Item 0 Braçadeira(A) [1652] [43 9 54 18 72 30]
10:53:06 : [AeroDynamik] - Aylin - Item 1 Braçadeira(A) [1652] [43 9 54 18 72 30]
10:53:06 : [AeroDynamik] - Aylin - Item 2 Pedra_do_Sábio [1774] [0 0 0 0 0 0]
10:53:06 : [AeroDynamik] - Aylin - Item 3 Garnet [2444] [0 0 0 0 0 0]
10:53:06 : [AeroDynamik] - Aylin - Item 4 Garnet [2444] [0 0 0 0 0 0]
10:53:06 : [AeroDynamik] - Aylin - Item 5 Garnet [2444] [0 0 0 0 0 0]
10:53:06 : [AeroDynamik] - Aylin - Item 6 Garnet [2444] [0 0 0 0 0 0]
10:53:06 : [AeroDynamik] - [Mensagem do servidor]> Houve uma falha na composição
10:53:06 : [AeroDynamik] - [Mensagem do servidor]: Jogador AeroDynamik falhou a composição do item Braçadeira(A) +10
10:53:06 : [AeroDynamik] - Aylin - Falha na composição - 76/45
10:53:07 : [AeroDynamik] - Clicado no NPC [Aylin]. Face 55. Race: 2. GenerateId: 3287. Posição do usuário: 2530x 1725y. Posição do NPC: 2529x 1725y
10:53:15 : [AeroDynamik] - Aylin - Item 0 Botas(A) [1655] [43 9 73 30 74 18]
10:53:15 : [AeroDynamik] - Aylin - Item 1 Botas(A) [1655] [43 9 73 30 74 18]
10:53:15 : [AeroDynamik] - Aylin - Item 2 Pedra_do_Sábio [1774] [0 0 0 0 0 0]
10:53:15 : [AeroDynamik] - Aylin - Item 3 Garnet [2444] [0 0 0 0 0 0]
10:53:15 : [AeroDynamik] - Aylin - Item 4 Garnet [2444] [0 0 0 0 0 0]
10:53:15 : [AeroDynamik] - Aylin - Item 5 Garnet [2444] [0 0 0 0 0 0]
10:53:15 : [AeroDynamik] - Aylin - Item 6 Garnet [2444] [0 0 0 0 0 0]
10:53:15 : [AeroDynamik] - [Mensagem do servidor]> Houve uma falha na composição
10:53:15 : [AeroDynamik] - [Mensagem do servidor]: Jogador AeroDynamik falhou a composição do item Botas(A) +10
10:53:15 : [AeroDynamik] - Aylin - Falha na composição - 53/45
10:53:18 : [AeroDynamik] - Moveu item Peitoral(A) [1646] [43 233 2 30 71 70] do tipo INVENTÁRIO do slot 36 para tipo EQUIPAMENTO slot 2
10:53:21 : [AeroDynamik] - Moveu item Calça(A) [1649] [43 233 2 30 71 70] do tipo INVENTÁRIO do slot 46 para tipo EQUIPAMENTO slot 3
10:53:30 : [AeroDynamik] - Moveu item Botas(A) [1655] [43 9 73 30 74 18] do tipo INVENTÁRIO do slot 51 para tipo INVENTÁRIO slot 44
10:53:31 : [AeroDynamik] - Moveu item Chapéu(A) [1643] [43 9 3 25 26 18] do tipo INVENTÁRIO do slot 35 para tipo INVENTÁRIO slot 37
10:53:35 : [AeroDynamik] - Moveu item Braçadeira(A) [1652] [43 9 54 18 72 30] do tipo INVENTÁRIO do slot 55 para tipo INVENTÁRIO slot 43
10:53:38 : [AeroDynamik] - Moveu item Chapéu(A) [1643] [43 9 3 25 26 18] do tipo INVENTÁRIO do slot 45 para tipo INVENTÁRIO slot 42
10:53:45 : [AeroDynamik] - Teleportado para a posição 2117 2102
10:54:21 : [AeroDynamik] - [Mensagem do servidor]> 1 itens decompostos com sucesso!
10:54:25 : [AeroDynamik] - [Mensagem do servidor]> 3 itens decompostos com sucesso!
10:54:29 : [AeroDynamik] - Item Barra_de_Prata(100Mi) [4010] [0 0 0 0 0 0] utilizado em 2116x 2111y
10:54:29 : [AeroDynamik] - Gold atual: 1330299.
10:54:32 : [AeroDynamik] - Item Barra_de_Prata(100Mi) [4010] [0 0 0 0 0 0] utilizado em 2116x 2111y
10:54:32 : [AeroDynamik] - Gold atual: 101330299.
10:54:32 : [AeroDynamik] - Item Barra_de_Prata(100Mi) [4010] [0 0 0 0 0 0] utilizado em 2116x 2111y
10:54:32 : [AeroDynamik] - Gold atual: 201330299.
10:54:32 : [AeroDynamik] - Item Barra_de_Prata(100Mi) [4010] [0 0 0 0 0 0] utilizado em 2116x 2111y
10:54:32 : [AeroDynamik] - Gold atual: 301330299.
10:54:32 : [AeroDynamik] - Item Barra_de_Prata(100Mi) [4010] [0 0 0 0 0 0] utilizado em 2116x 2111y
10:54:32 : [AeroDynamik] - Gold atual: 401330299.
10:54:33 : [AeroDynamik] - Item Barra_de_Prata(100Mi) [4010] [0 0 0 0 0 0] utilizado em 2116x 2111y
10:54:33 : [AeroDynamik] - Gold atual: 501330299.
10:54:33 : [AeroDynamik] - Item Barra_de_Prata(100Mi) [4010] [0 0 0 0 0 0] utilizado em 2116x 2111y
10:54:33 : [AeroDynamik] - Gold atual: 601330299.
10:54:33 : [AeroDynamik] - Item Barra_de_Prata(100Mi) [4010] [0 0 0 0 0 0] utilizado em 2116x 2111y
10:54:33 : [AeroDynamik] - Gold atual: 701330299.
10:54:35 : [AeroDynamik] - Item Barra_de_Prata(100Mi) [4010] [0 0 0 0 0 0] utilizado em 2116x 2111y
10:54:35 : [AeroDynamik] - Gold atual: 801330299.
10:54:38 : [AeroDynamik] - Teleportado para a posição 960 1761
10:54:41 : [AeroDynamik] - Teleportado para a posição 2482 1717
10:54:50 : [AeroDynamik] - Clicado no NPC [Aylin]. Face 55. Race: 2. GenerateId: 3287. Posição do usuário: 2532x 1718y. Posição do NPC: 2529x 1725y
10:54:58 : [AeroDynamik] - Aylin - Item 0 Chapéu(A) [1643] [43 9 3 25 26 18]
10:54:58 : [AeroDynamik] - Aylin - Item 1 Chapéu(A) [1643] [43 9 3 25 26 18]
10:54:58 : [AeroDynamik] - Aylin - Item 2 Pedra_do_Sábio [1774] [0 0 0 0 0 0]
10:54:58 : [AeroDynamik] - Aylin - Item 3 Garnet [2444] [0 0 0 0 0 0]
10:54:58 : [AeroDynamik] - Aylin - Item 4 Garnet [2444] [0 0 0 0 0 0]
10:54:58 : [AeroDynamik] - Aylin - Item 5 Garnet [2444] [0 0 0 0 0 0]
10:54:58 : [AeroDynamik] - Aylin - Item 6 Garnet [2444] [0 0 0 0 0 0]
10:54:58 : [AeroDynamik] - [Mensagem do servidor]> Houve uma falha na composição
10:54:58 : [AeroDynamik] - [Mensagem do servidor]: Jogador AeroDynamik falhou a composição do item Chapéu(A) +10
10:54:58 : [AeroDynamik] - Aylin - Falha na composição - 51/45
10:54:59 : [AeroDynamik] - Clicado no NPC [Aylin]. Face 55. Race: 2. GenerateId: 3287. Posição do usuário: 2531x 1728y. Posição do NPC: 2529x 1725y
10:55:06 : [AeroDynamik] - Aylin - Item 0 Braçadeira(A) [1652] [43 9 54 18 72 30]
10:55:06 : [AeroDynamik] - Aylin - Item 1 Braçadeira(A) [1652] [43 9 54 18 72 30]
10:55:06 : [AeroDynamik] - Aylin - Item 2 Pedra_do_Sábio [1774] [0 0 0 0 0 0]
10:55:06 : [AeroDynamik] - Aylin - Item 3 Garnet [2444] [0 0 0 0 0 0]
10:55:06 : [AeroDynamik] - Aylin - Item 4 Garnet [2444] [0 0 0 0 0 0]
10:55:06 : [AeroDynamik] - Aylin - Item 5 Garnet [2444] [0 0 0 0 0 0]
10:55:06 : [AeroDynamik] - Aylin - Item 6 Garnet [2444] [0 0 0 0 0 0]
10:55:06 : [AeroDynamik] - [Mensagem do servidor]> Houve uma falha na composição
10:55:06 : [AeroDynamik] - [Mensagem do servidor]: Jogador AeroDynamik falhou a composição do item Braçadeira(A) +10
10:55:06 : [AeroDynamik] - Aylin - Falha na composição - 52/45
10:55:07 : [AeroDynamik] - Clicado no NPC [Aylin]. Face 55. Race: 2. GenerateId: 3287. Posição do usuário: 2531x 1728y. Posição do NPC: 2529x 1725y
10:55:17 : [AeroDynamik] - Aylin - Item 0 Braçadeira(A) [1652] [43 9 54 18 72 30]
10:55:17 : [AeroDynamik] - Aylin - Item 1 Braçadeira(A) [1652] [43 9 54 18 72 30]
10:55:17 : [AeroDynamik] - Aylin - Item 2 Pedra_do_Sábio [1774] [0 0 0 0 0 0]
10:55:17 : [AeroDynamik] - Aylin - Item 3 Garnet [2444] [0 0 0 0 0 0]
10:55:17 : [AeroDynamik] - Aylin - Item 4 Garnet [2444] [0 0 0 0 0 0]
10:55:17 : [AeroDynamik] - Aylin - Item 5 Garnet [2444] [0 0 0 0 0 0]
10:55:17 : [AeroDynamik] - Aylin - Item 6 Garnet [2444] [0 0 0 0 0 0]
10:55:17 : [AeroDynamik] - Aylin - Sucesso na composição do item Braçadeira(A) +10 - (1652) 43 233 54 18 72 30 - 25/45
10:55:20 : [AeroDynamik] - Moveu item Braçadeira(A) [1652] [43 233 54 18 72 30] do tipo INVENTÁRIO do slot 38 para tipo EQUIPAMENTO slot 4
10:55:24 : [AeroDynamik] - Item Lactolerium_100 [4141] [0 0 0 0 0 0] utilizado em 0x 0y
10:55:24 : [AeroDynamik] - [Mensagem do servidor]> Não é possível refinar este item
10:55:29 : [AeroDynamik] - Item Lactolerium_100 [4141] [0 0 0 0 0 0] utilizado em 0x 0y
10:55:29 : [AeroDynamik] - [Mensagem do servidor]> Não é possível refinar este item
10:55:32 : [AeroDynamik] - Item Lactolerium_100 [4141] [0 0 0 0 0 0] utilizado em 0x 0y
10:55:32 : [AeroDynamik] - [Mensagem do servidor]> Não é possível refinar este item
10:55:38 : [AeroDynamik] - Item Lactolerium_100 deletado [4141] [0 0 0 0 0 0]. Slot 12
10:55:41 : [AeroDynamik] - Item Lactolerium_100 deletado [4141] [0 0 0 0 0 0]. Slot 19
10:55:53 : [AeroDynamik] - Comando "/gm +item 3330 61 120"
10:55:53 : [AeroDynamik] - [Mensagem do servidor]> Criou o item Trombeta_Mágica
10:55:53 : [AeroDynamik] - AeroDynamik criou o item Trombeta_Mágica [3330] [61 120 0 0 0 0]
10:56:04 : [AeroDynamik] - Comando "/spk O proprio dev sem sorte"
10:56:04 : [AeroDynamik] - Trombeta: O proprio dev sem sorte
10:56:11 : [AeroDynamik] - Teleportado para a posição 2117 2102
10:56:39 : [AeroDynamik] - Teleportado para a posição 960 1761
10:56:42 : [AeroDynamik] - Teleportado para a posição 2482 1717
10:56:51 : [AeroDynamik] - Clicado no NPC [Aylin]. Face 55. Race: 2. GenerateId: 3287. Posição do usuário: 2531x 1718y. Posição do NPC: 2529x 1725y
10:56:58 : [AeroDynamik] - Aylin - Item 0 Chapéu(A) [1643] [43 9 3 25 26 18]
10:56:58 : [AeroDynamik] - Aylin - Item 1 Chapéu(A) [1643] [43 9 3 25 26 18]
10:56:58 : [AeroDynamik] - Aylin - Item 2 Pedra_do_Sábio [1774] [0 0 0 0 0 0]
10:56:58 : [AeroDynamik] - Aylin - Item 3 Garnet [2444] [0 0 0 0 0 0]
10:56:58 : [AeroDynamik] - Aylin - Item 4 Garnet [2444] [0 0 0 0 0 0]
10:56:58 : [AeroDynamik] - Aylin - Item 5 Garnet [2444] [0 0 0 0 0 0]
10:56:58 : [AeroDynamik] - Aylin - Item 6 Garnet [2444] [0 0 0 0 0 0]
10:56:58 : [AeroDynamik] - [Mensagem do servidor]> Houve uma falha na composição
10:56:58 : [AeroDynamik] - [Mensagem do servidor]: Jogador AeroDynamik falhou a composição do item Chapéu(A) +10
10:56:58 : [AeroDynamik] - Aylin - Falha na composição - 100/45
10:56:59 : [AeroDynamik] - Clicado no NPC [Aylin]. Face 55. Race: 2. GenerateId: 3287. Posição do usuário: 2530x 1727y. Posição do NPC: 2529x 1725y
10:57:06 : [AeroDynamik] - Aylin - Item 0 Botas(A) [1655] [43 9 73 30 74 18]
10:57:06 : [AeroDynamik] - Aylin - Item 1 Botas(A) [1655] [43 9 73 30 74 18]
10:57:06 : [AeroDynamik] - Aylin - Item 2 Pedra_do_Sábio [1774] [0 0 0 0 0 0]
10:57:06 : [AeroDynamik] - Aylin - Item 3 Garnet [2444] [0 0 0 0 0 0]
10:57:06 : [AeroDynamik] - Aylin - Item 4 Garnet [2444] [0 0 0 0 0 0]
10:57:06 : [AeroDynamik] - Aylin - Item 5 Garnet [2444] [0 0 0 0 0 0]
10:57:06 : [AeroDynamik] - Aylin - Item 6 Garnet [2444] [0 0 0 0 0 0]
10:57:06 : [AeroDynamik] - Aylin - Sucesso na composição do item Botas(A) +10 - (1655) 43 233 73 30 74 18 - 6/45
10:57:11 : [AeroDynamik] - Moveu item Botas(A) [1655] [43 233 73 30 74 18] do tipo INVENTÁRIO do slot 39 para tipo EQUIPAMENTO slot 5
10:57:21 : [AeroDynamik] - Teleportado para a posição 2117 2102
10:57:39 : [AeroDynamik] - Teleportado para a posição 960 1761
10:57:47 : [AeroDynamik] - Teleportado para a posição 2482 1717
10:57:55 : [AeroDynamik] - Clicado no NPC [Aylin]. Face 55. Race: 2. GenerateId: 3287. Posição do usuário: 2530x 1725y. Posição do NPC: 2529x 1725y
10:58:03 : [AeroDynamik] - Aylin - Item 0 Chapéu(A) [1643] [43 9 3 25 26 18]
10:58:03 : [AeroDynamik] - Aylin - Item 1 Chapéu(A) [1643] [43 9 3 25 26 18]
10:58:03 : [AeroDynamik] - Aylin - Item 2 Pedra_do_Sábio [1774] [0 0 0 0 0 0]
10:58:03 : [AeroDynamik] - Aylin - Item 3 Garnet [2444] [0 0 0 0 0 0]
10:58:03 : [AeroDynamik] - Aylin - Item 4 Garnet [2444] [0 0 0 0 0 0]
10:58:03 : [AeroDynamik] - Aylin - Item 5 Garnet [2444] [0 0 0 0 0 0]
10:58:03 : [AeroDynamik] - Aylin - Item 6 Garnet [2444] [0 0 0 0 0 0]
10:58:03 : [AeroDynamik] - [Mensagem do servidor]> Houve uma falha na composição
10:58:03 : [AeroDynamik] - [Mensagem do servidor]: Jogador AeroDynamik falhou a composição do item Chapéu(A) +10
10:58:03 : [AeroDynamik] - Aylin - Falha na composição - 69/45
10:58:11 : [AeroDynamik] - Comando "/gm +move armia"
10:58:11 : [AeroDynamik] - Teleportado para a posição 2100 2100
10:58:30 : [AeroDynamik] - Comando "/gm +move azran"
10:58:30 : [AeroDynamik] - Teleportado para a posição 2482 1709
10:58:38 : [AeroDynamik] - Clicado no NPC [Aylin]. Face 55. Race: 2. GenerateId: 3287. Posição do usuário: 2528x 1722y. Posição do NPC: 2529x 1725y
10:58:45 : [AeroDynamik] - Aylin - Item 0 Chapéu(A) [1643] [43 9 3 25 26 18]
10:58:45 : [AeroDynamik] - Aylin - Item 1 Chapéu(A) [1643] [43 9 3 25 26 18]
10:58:45 : [AeroDynamik] - Aylin - Item 2 Pedra_do_Sábio [1774] [0 0 0 0 0 0]
10:58:45 : [AeroDynamik] - Aylin - Item 3 Garnet [2444] [0 0 0 0 0 0]
10:58:45 : [AeroDynamik] - Aylin - Item 4 Garnet [2444] [0 0 0 0 0 0]
10:58:45 : [AeroDynamik] - Aylin - Item 5 Garnet [2444] [0 0 0 0 0 0]
10:58:45 : [AeroDynamik] - Aylin - Item 6 Garnet [2444] [0 0 0 0 0 0]
10:58:45 : [AeroDynamik] - [Mensagem do servidor]> Houve uma falha na composição
10:58:45 : [AeroDynamik] - [Mensagem do servidor]: Jogador AeroDynamik falhou a composição do item Chapéu(A) +10
10:58:45 : [AeroDynamik] - Aylin - Falha na composição - 79/45
10:58:48 : [AeroDynamik] - Comando "/gm +move armia"
10:58:48 : [AeroDynamik] - Teleportado para a posição 2100 2100
10:59:15 : [AeroDynamik] - Comando "/gm +move azran"
10:59:15 : [AeroDynamik] - Teleportado para a posição 2482 1709
10:59:23 : [AeroDynamik] - Clicado no NPC [Aylin]. Face 55. Race: 2. GenerateId: 3287. Posição do usuário: 2528x 1721y. Posição do NPC: 2529x 1725y
10:59:28 : [AeroDynamik] - Aylin - Item 0 Chapéu(A) [1643] [43 9 3 25 26 18]
10:59:28 : [AeroDynamik] - Aylin - Item 1 Chapéu(A) [1643] [43 9 3 25 26 18]
10:59:28 : [AeroDynamik] - Aylin - Item 2 Pedra_do_Sábio [1774] [0 0 0 0 0 0]
10:59:28 : [AeroDynamik] - Aylin - Item 3 Garnet [2444] [0 0 0 0 0 0]
10:59:28 : [AeroDynamik] - Aylin - Item 4 Garnet [2444] [0 0 0 0 0 0]
10:59:28 : [AeroDynamik] - Aylin - Item 5 Garnet [2444] [0 0 0 0 0 0]
10:59:28 : [AeroDynamik] - Aylin - Item 6 Garnet [2444] [0 0 0 0 0 0]
10:59:28 : [AeroDynamik] - Aylin - Sucesso na composição do item Chapéu(A) +10 - (1643) 43 233 3 25 26 18 - 34/45
10:59:30 : [AeroDynamik] - Moveu item Chapéu(A) [1643] [43 233 3 25 26 18] do tipo INVENTÁRIO do slot 37 para tipo EQUIPAMENTO slot 1
10:59:33 : [AeroDynamik] - Comando "/gm +move armia"
10:59:33 : [AeroDynamik] - Teleportado para a posição 2100 2100
10:59:49 : [AeroDynamik] - Moveu item Arco [825] [2 45 0 0 0 0] do tipo INVENTÁRIO do slot 31 para tipo EQUIPAMENTO slot 6
10:59:52 : [AeroDynamik] - Moveu item Poeira_de_Lactolerium [413] [61 240 0 0 0 0] do tipo INVENTÁRIO do slot 19 para tipo INVENTÁRIO slot 15
10:59:53 : [AeroDynamik] - Item Jóia_da_Absorção [3204] [61 9 0 0 0 0] utilizado em 2121x 2116y
10:59:53 : [AeroDynamik] - Item Jóia_da_Absorção [3204] [61 8 0 0 0 0] utilizado em 2121x 2116y
10:59:53 : [AeroDynamik] - O usuário usou itens muito rapidamente. Tempo para usar o item: 127. Item: Jóia_da_Absorção
10:59:54 : [AeroDynamik] - Item Jóia_da_Proteção [3205] [61 9 0 0 0 0] utilizado em 2121x 2116y
10:59:55 : [AeroDynamik] - Item Jóia_da_Proteção [3205] [61 8 0 0 0 0] utilizado em 2121x 2116y
10:59:55 : [AeroDynamik] - Item Jóia_do_Poder [3206] [61 9 0 0 0 0] utilizado em 2121x 2116y
10:59:55 : [AeroDynamik] - Item Jóia_do_Poder [3206] [61 8 0 0 0 0] utilizado em 2121x 2116y
10:59:56 : [AeroDynamik] - Item Jóia_da_Precisão [3208] [61 9 0 0 0 0] utilizado em 2121x 2116y
10:59:56 : [AeroDynamik] - Item Jóia_da_Precisão [3208] [61 8 0 0 0 0] utilizado em 2121x 2116y
11:00:05 : [AeroDynamik] - Item Poeira_de_Lactolerium [413] [61 240 0 0 0 0] utilizado em 0x 0y
11:00:05 : [AeroDynamik] - [Mensagem do servidor]> Refinação sucedida.
11:00:05 : [AeroDynamik] - Item Arco refinado com sucesso para 1 - [825] [2 45 0 0 0 0] 38/100
11:00:07 : [AeroDynamik] - Item Poeira_de_Lactolerium [413] [61 239 0 0 0 0] utilizado em 0x 0y
11:00:07 : [AeroDynamik] - [Mensagem do servidor]> Refinação sucedida.
11:00:07 : [AeroDynamik] - Item Arco refinado com sucesso para 2 - [825] [2 45 43 1 0 0] 80/100
11:00:10 : [AeroDynamik] - Item Poeira_de_Lactolerium [413] [61 238 0 0 0 0] utilizado em 0x 0y
11:00:10 : [AeroDynamik] - [Mensagem do servidor]> Refinação sucedida.
11:00:10 : [AeroDynamik] - Item Arco refinado com sucesso para 3 - [825] [2 45 43 2 0 0] 12/100
11:00:12 : [AeroDynamik] - Item Poeira_de_Lactolerium [413] [61 237 0 0 0 0] utilizado em 0x 0y
11:00:12 : [AeroDynamik] - [Mensagem do servidor]> Refinação sucedida.
11:00:12 : [AeroDynamik] - Item Arco refinado com sucesso para 4 - [825] [2 45 43 3 0 0] 74/100
11:00:14 : [AeroDynamik] - Item Poeira_de_Lactolerium [413] [61 236 0 0 0 0] utilizado em 0x 0y
11:00:14 : [AeroDynamik] - [Mensagem do servidor]> Refinação sucedida.
11:00:14 : [AeroDynamik] - Item Arco refinado com sucesso para 5 - [825] [2 45 43 4 0 0] 86/100
11:00:16 : [AeroDynamik] - Item Poeira_de_Lactolerium [413] [61 235 0 0 0 0] utilizado em 0x 0y
11:00:16 : [AeroDynamik] - [Mensagem do servidor]> Refinação sucedida.
11:00:16 : [AeroDynamik] - Item Arco refinado com sucesso para 6 - [825] [2 45 43 5 0 0] 27/100
11:00:18 : [AeroDynamik] - Item Poeira_de_Lactolerium [413] [61 234 0 0 0 0] utilizado em 0x 0y
11:00:18 : [AeroDynamik] - [Mensagem do servidor]> Refinação NÃO sucedida.
11:00:18 : [AeroDynamik] - Falha na refinação de Arco para 7 - [825] [2 45 43 6 0 0] 100/65
11:00:20 : [AeroDynamik] - Item Poeira_de_Lactolerium [413] [61 233 0 0 0 0] utilizado em 0x 0y
11:00:20 : [AeroDynamik] - [Mensagem do servidor]> Refinação sucedida.
11:00:20 : [AeroDynamik] - Item Arco refinado com sucesso para 7 - [825] [2 45 43 6 0 0] 34/65
11:00:22 : [AeroDynamik] - Item Poeira_de_Lactolerium [413] [61 232 0 0 0 0] utilizado em 0x 0y
11:00:22 : [AeroDynamik] - [Mensagem do servidor]> Refinação NÃO sucedida.
11:00:22 : [AeroDynamik] - Falha na refinação de Arco para 8 - [825] [2 45 43 7 0 0] 93/50
11:00:24 : [AeroDynamik] - Item Poeira_de_Lactolerium [413] [61 231 0 0 0 0] utilizado em 0x 0y
11:00:24 : [AeroDynamik] - [Mensagem do servidor]> Refinação NÃO sucedida.
11:00:24 : [AeroDynamik] - Falha na refinação de Arco para 8 - [825] [2 45 43 7 0 0] 62/50
11:00:26 : [AeroDynamik] - Item Poeira_de_Lactolerium [413] [61 230 0 0 0 0] utilizado em 0x 0y
11:00:26 : [AeroDynamik] - [Mensagem do servidor]> Refinação sucedida.
11:00:26 : [AeroDynamik] - Item Arco refinado com sucesso para 8 - [825] [2 45 43 7 0 0] 43/50
11:00:28 : [AeroDynamik] - Item Poeira_de_Lactolerium [413] [61 229 0 0 0 0] utilizado em 0x 0y
11:00:28 : [AeroDynamik] - [Mensagem do servidor]> Refinação sucedida.
11:00:28 : [AeroDynamik] - Item Arco refinado com sucesso para 9 - [825] [2 45 43 8 0 0] 18/45
11:00:34 : [AeroDynamik] - Moveu item Arco [825] [2 45 0 0 0 0] do tipo INVENTÁRIO do slot 6 para tipo EQUIPAMENTO slot 6
11:00:37 : [AeroDynamik] - Moveu item Arco_Guardião [3556] [43 9 2 36 0 0] do tipo INVENTÁRIO do slot 31 para tipo INVENTÁRIO slot 6
11:00:42 : [AeroDynamik] - Item Poeira_de_Lactolerium [413] [61 228 0 0 0 0] utilizado em 0x 0y
11:00:42 : [AeroDynamik] - [Mensagem do servidor]> Refinação NÃO sucedida.
11:00:42 : [AeroDynamik] - Falha na refinação de Chapéu(A) para 11 - [1643] [43 233 3 25 26 18]
11:00:44 : [AeroDynamik] - Item Poeira_de_Lactolerium [413] [61 227 0 0 0 0] utilizado em 0x 0y
11:00:44 : [AeroDynamik] - [Mensagem do servidor]> Refinação NÃO sucedida.
11:00:44 : [AeroDynamik] - Falha na refinação de Peitoral(A) para 11 - [1646] [43 233 2 30 71 70]
11:00:46 : [AeroDynamik] - Item Poeira_de_Lactolerium [413] [61 226 0 0 0 0] utilizado em 0x 0y
11:00:46 : [AeroDynamik] - [Mensagem do servidor]> Refinação NÃO sucedida.
11:00:46 : [AeroDynamik] - Falha na refinação de Braçadeira(A) para 11 - [1652] [43 233 54 18 72 30]
11:00:48 : [AeroDynamik] - Item Poeira_de_Lactolerium [413] [61 225 0 0 0 0] utilizado em 0x 0y
11:00:48 : [AeroDynamik] - [Mensagem do servidor]> Refinação NÃO sucedida.
11:00:48 : [AeroDynamik] - Falha na refinação de Calça(A) para 11 - [1649] [43 233 2 30 71 70]
11:00:51 : [AeroDynamik] - Item Poeira_de_Lactolerium [413] [61 224 0 0 0 0] utilizado em 0x 0y
11:00:51 : [AeroDynamik] - [Mensagem do servidor]> Refinação NÃO sucedida.
11:00:51 : [AeroDynamik] - Falha na refinação de Botas(A) para 11 - [1655] [43 233 73 30 74 18]
11:00:53 : [AeroDynamik] - Item Poeira_de_Lactolerium [413] [61 223 0 0 0 0] utilizado em 0x 0y
11:00:53 : [AeroDynamik] - [Mensagem do servidor]> Refinação sucedida.
11:00:53 : [AeroDynamik] - Item Arco refinado com sucesso para 1 - [825] [2 45 0 0 0 0] 56/100
11:00:55 : [AeroDynamik] - Item Poeira_de_Lactolerium [413] [61 222 0 0 0 0] utilizado em 0x 0y
11:00:55 : [AeroDynamik] - [Mensagem do servidor]> Refinação NÃO sucedida.
11:00:55 : [AeroDynamik] - Falha na refinação de Chapéu(A) para 11 - [1643] [43 233 3 25 26 18]
11:01:05 : [AeroDynamik] - Item Poeira_de_Lactolerium [413] [61 221 0 0 0 0] utilizado em 0x 0y
11:01:05 : [AeroDynamik] - [Mensagem do servidor]> Refinação NÃO sucedida.
11:01:05 : [AeroDynamik] - Falha na refinação de Chapéu(A) para 11 - [1643] [43 233 3 25 26 18]
11:01:06 : [AeroDynamik] - Item Poeira_de_Lactolerium [413] [61 220 0 0 0 0] utilizado em 0x 0y
11:01:06 : [AeroDynamik] - [Mensagem do servidor]> Refinação NÃO sucedida.
11:01:06 : [AeroDynamik] - Falha na refinação de Peitoral(A) para 11 - [1646] [43 233 2 30 71 70]
11:01:07 : [AeroDynamik] - Item Poeira_de_Lactolerium [413] [61 219 0 0 0 0] utilizado em 0x 0y
11:01:07 : [AeroDynamik] - [Mensagem do servidor]> Refinação NÃO sucedida.
11:01:07 : [AeroDynamik] - Falha na refinação de Braçadeira(A) para 11 - [1652] [43 233 54 18 72 30]
11:01:08 : [AeroDynamik] - Item Poeira_de_Lactolerium [413] [61 218 0 0 0 0] utilizado em 0x 0y
11:01:08 : [AeroDynamik] - [Mensagem do servidor]> Refinação NÃO sucedida.