
07:58:13 : =========================== NOVA SESSÃO ==========================
Tentativa de logar na conta (ADMIN5) - IP: 84.123.38.2 Mac: (0B:A7:7A:4E:00:4C). ClientId: 2
07:58:13 : Usuário logou no jogo com clientId 2. - Servidor 1. Gold do banco: 0
07:58:13 : [INFORMAÇÕES DO BANCO]
Gold: 0
[  0] - Chapéu(A)[1403] [10 13 59 0 59 0]
[ 11] - Robe(A)[1406] [43 1 71 40 60 4]
[ 40] - Poção_de_Cura[400] [0 0 0 0 0 0]
[ 51] - Escudo[1701] [0 0 0 0 0 0]
[ 80] - Botas(A)[1154] [43 0 73 12 59 0]
[ 85] - Peitoral(N)[1569] [43 0 0 0 0 0]
[ 93] - Poção_de_Cura[400] [0 0 0 0 0 0]

07:58:13 : [INFORMAÇÕES DA CONTA]
Personagem na seleção de personagem. Sem informações no momento
Tempo online até o momento: 00 dias e 00:00:01 horas

[USUÁRIOS LOGADOS]
Nenhuma outra conta logada 

07:58:20 : Solicitou ir ao mundo...
07:58:20 : Recebido pedido para entrar no jogo
07:58:20 : Recebido informação do personagem completa.
07:58:20 : [AeroDynamik] - [INFORMAÇÕES DA CONTA]
Personagem online: AeroDynamik
Gold atual: 202342000
Level atual: 70
Experiência atual: 2062725
Evolução atual: Unknown
Tempo online até o momento: 00 dias e 00:00:07 horas
Posição atual: 2098x 2093y

Pontos NT: 0
Entradas Hall: 0
Info: 0
Soul: 0
Divina: 0/0/0 0:0:0
Sephira: 0/0/0 0:0:0
Saude: 0/0/0 0:0:0
Escritura: 0/0/0 0:0:0
Revigorante: 0/0/0 0:0:0
LastGuildKickout: 0/0/0 0:0:0
[EQUIPAMENTOS]
[00] - Rogue[31] [43 0 31 0 1 1]
[01] - Chapéu(M)[1597] [43 2 60 8 3 25]
[02] - Peitoral(M)[1600] [43 0 2 20 3 20]
[03] - Calça(M)[1603] [43 0 2 20 3 20]
[04] - Braçadeira(N)[1575] [43 8 0 0 0 0]
[05] - Botas(N)[1578] [43 8 0 0 0 0]
[06] - Arco[816] [43 8 0 0 0 0]
[14] - Lobo_Polar[3980] [96 24 1 21 0 0]

[INVENTÁRIO]
[00] - Aranha[2360] [88 27 39 20 0 0]
[01] - Kit_de_Cura_(20_M.)[682] [61 20 0 0 0 0]
[05] - Ração_de_Aranha[2420] [61 120 0 0 0 0]
[06] - Resto_de_Oriharucon[419] [61 5 0 0 0 0]
[63] - Marca_do_Assassino[547] [150 0 0 0 77 0]

[USUÁRIOS LOGADOS]
Nenhuma outra conta logada 

07:58:20 : [AeroDynamik] - Personagem AeroDynamik enviado ao mundo 2098x 2093y - Canal 1 - Cash da conta: 0. PowerLevel: 79
07:58:20 : [AeroDynamik] - Gold atual: 202342000. Classe: 3 Evolução: 0. Experiência: 2062725. Nível: 70. Info: 0. GuildID: 0. CP: 75. Pontos de Contribuição: 0. Limite: 0
07:58:20 : [AeroDynamik] - Logou no personagem AeroDynamik com baú de experiência ativo. Tempo: 745
07:58:20 : [AeroDynamik] - Logou no personagem AeroDynamik com frango ativo. Tempo: 1645
07:58:20 : [AeroDynamik] - Resetado a contagem de entradas água! Day: 20-21. Total: 0
07:58:20 : [AeroDynamik] - Enviado informações do personagem
07:58:21 : [AeroDynamik] - Comando "/day "
07:58:21 : [AeroDynamik] - [Mensagem do servidor]> !#11 2
07:58:28 : [AeroDynamik] - O usuï¿½rio nï¿½o enviou o pacote de integridade de macaddress
08:06:26 : [AeroDynamik] - ADMIN5 Recebeu lParam (WndProc) como 32. Erro possível: 10053. Desconectando o usuário.
08:06:26 : [AeroDynamik] - 2 Personagem foi desconectado. Permaneceu 00:08:06 minutos online
08:29:44 : =========================== NOVA SESSÃO ==========================
Tentativa de logar na conta (ADMIN5) - IP: 84.123.38.2 Mac: (0B:A7:7A:4E:00:4C). ClientId: 2
08:29:44 : Usuário logou no jogo com clientId 2. - Servidor 1. Gold do banco: 0
08:29:44 : [INFORMAÇÕES DO BANCO]
Gold: 0
[  0] - Chapéu(A)[1403] [10 13 59 0 59 0]
[ 11] - Robe(A)[1406] [43 1 71 40 60 4]
[ 40] - Poção_de_Cura[400] [0 0 0 0 0 0]
[ 51] - Escudo[1701] [0 0 0 0 0 0]
[ 80] - Botas(A)[1154] [43 0 73 12 59 0]
[ 85] - Peitoral(N)[1569] [43 0 0 0 0 0]
[ 93] - Poção_de_Cura[400] [0 0 0 0 0 0]

08:29:45 : [INFORMAÇÕES DA CONTA]
Personagem na seleção de personagem. Sem informações no momento
Tempo online até o momento: 00 dias e 00:00:01 horas

[USUÁRIOS LOGADOS]
Nenhuma outra conta logada 

08:29:50 : Solicitou ir ao mundo...
08:29:50 : Recebido pedido para entrar no jogo
08:29:50 : Recebido informação do personagem completa.
08:29:50 : [AeroDynamik] - [INFORMAÇÕES DA CONTA]
Personagem online: AeroDynamik
Gold atual: 202342000
Level atual: 70
Experiência atual: 2062725
Evolução atual: Unknown
Tempo online até o momento: 00 dias e 00:00:06 horas
Posição atual: 2099x 2099y

Pontos NT: 0
Entradas Hall: 0
Info: 0
Soul: 0
Divina: 0/0/0 0:0:0
Sephira: 0/0/0 0:0:0
Saude: 0/0/0 0:0:0
Escritura: 0/0/0 0:0:0
Revigorante: 0/0/0 0:0:0
LastGuildKickout: 0/0/0 0:0:0
[EQUIPAMENTOS]
[00] - Rogue[31] [43 0 31 0 1 1]
[01] - Chapéu(M)[1597] [43 2 60 8 3 25]
[02] - Peitoral(M)[1600] [43 0 2 20 3 20]
[03] - Calça(M)[1603] [43 0 2 20 3 20]
[04] - Braçadeira(N)[1575] [43 8 0 0 0 0]
[05] - Botas(N)[1578] [43 8 0 0 0 0]
[06] - Arco[816] [43 8 0 0 0 0]
[14] - Lobo_Polar[3980] [96 24 1 21 0 0]

[INVENTÁRIO]
[00] - Aranha[2360] [88 27 39 20 0 0]
[01] - Kit_de_Cura_(20_M.)[682] [61 20 0 0 0 0]
[05] - Ração_de_Aranha[2420] [61 120 0 0 0 0]
[06] - Resto_de_Oriharucon[419] [61 5 0 0 0 0]
[63] - Marca_do_Assassino[547] [150 0 0 0 77 0]

[USUÁRIOS LOGADOS]
Nenhuma outra conta logada 

08:29:50 : [AeroDynamik] - Personagem AeroDynamik enviado ao mundo 2099x 2099y - Canal 1 - Cash da conta: 0. PowerLevel: 79
08:29:50 : [AeroDynamik] - Gold atual: 202342000. Classe: 3 Evolução: 0. Experiência: 2062725. Nível: 70. Info: 0. GuildID: 0. CP: 75. Pontos de Contribuição: 0. Limite: 0
08:29:50 : [AeroDynamik] - Logou no personagem AeroDynamik com baú de experiência ativo. Tempo: 685
08:29:50 : [AeroDynamik] - Logou no personagem AeroDynamik com frango ativo. Tempo: 1585
08:29:50 : [AeroDynamik] - Enviado informações do personagem
08:29:51 : [AeroDynamik] - Comando "/day "
08:29:51 : [AeroDynamik] - [Mensagem do servidor]> !#11 2
08:30:05 : [AeroDynamik] - O usuï¿½rio nï¿½o enviou o pacote de integridade de macaddress
08:30:06 : [AeroDynamik] - Clicado no NPC [Mestre Grifo]. Face 21. Race: 2. GenerateId: 3418. Posição do usuário: 2120x 2082y. Posição do NPC: 2115x 2083y
08:31:01 : [AeroDynamik] - Matou o mob Gremlin. GenerID: 442
08:31:03 : [AeroDynamik] - Matou o mob Gremlin. GenerID: 435
08:31:23 : [AeroDynamik] - Teleportado para a posição 960 1761
08:32:15 : [AeroDynamik] - Matou o mob Tauron Bandido. GenerID: 3990
08:32:15 : [AeroDynamik] - [Mensagem do servidor]> + + + LEVEL UP + + +
08:32:15 : [AeroDynamik] - Level UP para level 71. Ev: 0/0 - 1157x 1733y
08:32:15 : [AeroDynamik] - [Mensagem do servidor]> + + + LEVEL UP + + +
08:32:15 : [AeroDynamik] - Level UP para level 72. Ev: 0/0 - 1157x 1733y
08:33:04 : [AeroDynamik] - Clicado no NPC [Comb. Judith]. Face 11. Race: 2. GenerateId: 3914. Posição do usuário: 959x 1682y. Posição do NPC: 957x 1682y
08:33:04 : [AeroDynamik] - Clicado no NPC de Imposto
08:33:34 : [AeroDynamik] - Teleportado para a posição 2117 2102
08:33:43 : [AeroDynamik] - Teleportado para a posição 2458 2017
08:33:52 : [AeroDynamik] - Clicado no NPC [Empis]. Face 60. Race: 2. GenerateId: 3272. Posição do usuário: 2462x 1977y. Posição do NPC: 2465x 1986y
08:33:52 : [AeroDynamik] - Clicado no NPC de Imposto
08:34:09 : [AeroDynamik] - Matou o mob Orc Cavaleiro. GenerID: 873
08:34:09 : [AeroDynamik] - Dropado item Peitoral(A) [2052] [12 8 71 40 59 0] em 2481x 2011y - Orc Cavaleiro (1/300)
08:34:12 : [AeroDynamik] - Matou o mob Orc Cavaleiro. GenerID: 875
08:34:13 : [AeroDynamik] - Matou o mob Meio Orc. GenerID: 873
08:34:13 : [AeroDynamik] - Dropado item Calça(A) [2053] [54 7 71 40 59 0] em 2489x 2010y - Meio Orc (1/178)
08:34:14 : [AeroDynamik] - Matou o mob Meio Orc. GenerID: 873
08:34:16 : [AeroDynamik] - Matou o mob Meio Orc. GenerID: 875
08:34:17 : [AeroDynamik] - Matou o mob Orc Cavaleiro. GenerID: 875
08:34:19 : [AeroDynamik] - Matou o mob Orc Cavaleiro. GenerID: 875
08:34:21 : [AeroDynamik] - Matou o mob Meio Orc. GenerID: 875
08:34:22 : [AeroDynamik] - Matou o mob Orc Cavaleiro. GenerID: 873
08:34:23 : [AeroDynamik] - Matou o mob Orc Cavaleiro. GenerID: 876
08:34:24 : [AeroDynamik] - Matou o mob Troll. GenerID: 874
08:34:27 : [AeroDynamik] - Matou o mob Meio Orc. GenerID: 873
08:34:30 : [AeroDynamik] - Matou o mob Orc Cavaleiro. GenerID: 875
08:34:31 : [AeroDynamik] - Matou o mob Meio Orc. GenerID: 875
08:34:40 : [AeroDynamik] - Matou o mob Orc Cavaleiro. GenerID: 873
08:34:42 : [AeroDynamik] - Matou o mob Orc Cavaleiro. GenerID: 873
08:34:43 : [AeroDynamik] - Matou o mob Meio Orc . GenerID: 866
08:34:46 : [AeroDynamik] - Matou o mob Orc Cavaleiro. GenerID: 876
08:34:51 : [AeroDynamik] - Matou o mob Meio Orc. GenerID: 875
08:35:03 : [AeroDynamik] - Matou o mob Troll. GenerID: 874
08:35:03 : [AeroDynamik] - Dropado item Botas(M) [1159] [43 1 73 12 59 0] em 2495x 2017y - Troll (1/70)
08:35:04 : [AeroDynamik] - Matou o mob Orc Cavaleiro. GenerID: 873
08:35:12 : [AeroDynamik] - Matou o mob Meio Orc. GenerID: 873
08:35:28 : [AeroDynamik] - Matou o mob Orc Cavaleiro. GenerID: 873
08:35:30 : [AeroDynamik] - Matou o mob Orc Cavaleiro. GenerID: 873
08:35:30 : [AeroDynamik] - Dropado item Cajado [896] [43 2 60 12 59 0] em 2495x 2017y - Orc Cavaleiro (1/300)
08:35:31 : [AeroDynamik] - Matou o mob Meio Orc. GenerID: 873
08:35:32 : [AeroDynamik] - Matou o mob Troll. GenerID: 874
08:35:34 : [AeroDynamik] - Matou o mob Meio Orc. GenerID: 873
08:35:40 : [AeroDynamik] - Matou o mob Meio Orc. GenerID: 873
08:35:40 : [AeroDynamik] - [Mensagem do servidor]> Adquiriu 2/4 de bônus.
08:35:44 : [AeroDynamik] - Matou o mob Meio Orc . GenerID: 868
08:35:48 : [AeroDynamik] - Matou o mob Troll. GenerID: 874
08:35:49 : [AeroDynamik] - Matou o mob Meio Orc. GenerID: 867
08:35:50 : [AeroDynamik] - Matou o mob Meio Orc. GenerID: 873
08:35:51 : [AeroDynamik] - Matou o mob Orc Cavaleiro. GenerID: 873
08:35:54 : [AeroDynamik] - Matou o mob Orc Cavaleiro. GenerID: 873
08:36:01 : [AeroDynamik] - Item Peitoral(A) deletado [2052] [12 8 71 40 59 0]. Slot 2
08:36:02 : [AeroDynamik] - Matou o mob Meio Orc. GenerID: 873
08:36:03 : [AeroDynamik] - Matou o mob Orc Cavaleiro. GenerID: 875
08:36:06 : [AeroDynamik] - Item Calça(A) deletado [2053] [54 7 71 40 59 0]. Slot 3
08:36:06 : [AeroDynamik] - Matou o mob Orc Cavaleiro. GenerID: 873
08:36:07 : [AeroDynamik] - Matou o mob Meio Orc. GenerID: 873
08:36:10 : [AeroDynamik] - Item Botas(M) deletado [1159] [43 1 73 12 59 0]. Slot 4
08:36:12 : [AeroDynamik] - Matou o mob Meio Orc. GenerID: 875
08:36:14 : [AeroDynamik] - Item Cajado deletado [896] [43 2 60 12 59 0]. Slot 7
08:36:17 : [AeroDynamik] - Matou o mob Orc Cavaleiro. GenerID: 875
08:36:18 : [AeroDynamik] - Matou o mob Orc Cavaleiro. GenerID: 875
08:36:19 : [AeroDynamik] - Matou o mob Meio Orc. GenerID: 875
08:36:20 : [AeroDynamik] - Matou o mob Meio Orc. GenerID: 876
08:36:23 : [AeroDynamik] - Matou o mob Meio Orc. GenerID: 876
08:36:23 : [AeroDynamik] - Dropado item Amuleto_de_Prata [554] [0 0 0 0 0 0] em 2493x 2008y - Meio Orc (1/2400)
08:36:28 : [AeroDynamik] - Matou o mob Meio Orc. GenerID: 873
08:36:29 : [AeroDynamik] - Matou o mob Orc Cavaleiro. GenerID: 873
08:36:30 : [AeroDynamik] - Matou o mob Orc Cavaleiro. GenerID: 876
08:36:31 : [AeroDynamik] - Matou o mob Meio Orc. GenerID: 876
08:36:33 : [AeroDynamik] - Moveu item Amuleto_de_Prata [554] [0 0 0 0 0 0] do tipo INVENTÁRIO do slot 2 para tipo EQUIPAMENTO slot 9
08:36:43 : [AeroDynamik] - Matou o mob Meio Orc. GenerID: 788
08:36:45 : [AeroDynamik] - Matou o mob Dragao Menor. GenerID: 789
08:37:02 : [AeroDynamik] - Matou o mob Chefe Krill. GenerID: 608
08:37:02 : [AeroDynamik] - Clicado no NPC [Coveiro]. Face 58. Race: 2. GenerateId: 3282. Posição do usuário: 2374x 2094y. Posição do NPC: 2372x 2097y
08:37:02 : [AeroDynamik] - Teleportado para a posição 2397 2105
08:37:02 : [AeroDynamik] - AeroDynamik entrou na quest [Coveiro].
08:37:08 : [AeroDynamik] - Matou o mob Esqueleto. GenerID: 4238
08:37:08 : [AeroDynamik] - Dropado item Caixa_da_Sabedoria [4117] [0 0 0 0 0 0] em 2390x 2100y - Esqueleto (1/4)
08:37:14 : [AeroDynamik] - Matou o mob Aparicao. GenerID: 4233
08:37:14 : [AeroDynamik] - Dropado item Caixa_da_Sabedoria [4117] [0 0 0 0 0 0] em 2390x 2100y - Aparicao (1/1)
08:37:16 : [AeroDynamik] - Matou o mob Esqueleto. GenerID: 4238
08:37:25 : [AeroDynamik] - Matou o mob Esqueleto. GenerID: 4238
08:37:25 : [AeroDynamik] - [Mensagem do servidor]> Adquiriu 3/4 de bônus.
08:37:27 : [AeroDynamik] - Matou o mob Aparicao. GenerID: 4232
08:37:27 : [AeroDynamik] - Dropado item Caixa_da_Sabedoria [4117] [0 0 0 0 0 0] em 2389x 2095y - Aparicao (1/1)
08:37:31 : [AeroDynamik] - Matou o mob Aparicao. GenerID: 4230
08:37:31 : [AeroDynamik] - [Mensagem do servidor]> + + + LEVEL UP + + +
08:37:31 : [AeroDynamik] - Level UP para level 73. Ev: 0/0 - 2389x 2095y
08:37:31 : [AeroDynamik] - Dropado item Caixa_da_Sabedoria [4117] [0 0 0 0 0 0] em 2389x 2095y - Aparicao (1/1)
08:37:32 : [AeroDynamik] - [Mensagem do servidor]> Adquiriu 1/4 de bônus.
08:37:34 : [AeroDynamik] - Matou o mob Esqueleto. GenerID: 4227
08:37:37 : [AeroDynamik] - Matou o mob Esqueleto. GenerID: 4227
08:37:37 : [AeroDynamik] - [Mensagem do servidor]> Adquiriu 3/4 de bônus.
08:37:37 : [AeroDynamik] - Dropado item Caixa_da_Sabedoria [4117] [0 0 0 0 0 0] em 2389x 2095y - Esqueleto (1/4)
08:37:40 : [AeroDynamik] - Matou o mob Esqueleto. GenerID: 4227
08:37:43 : [AeroDynamik] - Matou o mob Esqueleto. GenerID: 4228
08:37:43 : [AeroDynamik] - Dropado item Caixa_da_Sabedoria [4117] [0 0 0 0 0 0] em 2389x 2095y - Esqueleto (1/4)
08:37:44 : [AeroDynamik] - Matou o mob Esqueleto. GenerID: 4238
08:37:44 : [AeroDynamik] - [Mensagem do servidor]> + + + LEVEL UP + + +
08:37:44 : [AeroDynamik] - Level UP para level 74. Ev: 0/0 - 2389x 2099y
08:37:44 : [AeroDynamik] - Dropado item Caixa_da_Sabedoria [4117] [0 0 0 0 0 0] em 2389x 2099y - Esqueleto (1/4)
08:37:46 : [AeroDynamik] - Matou o mob Esqueleto. GenerID: 4224
08:37:46 : [AeroDynamik] - Dropado item Caixa_da_Sabedoria [4117] [0 0 0 0 0 0] em 2389x 2099y - Esqueleto (1/4)
08:37:47 : [AeroDynamik] - Matou o mob Esqueleto. GenerID: 4223
08:37:47 : [AeroDynamik] - Dropado item Caixa_da_Sabedoria [4117] [0 0 0 0 0 0] em 2389x 2099y - Esqueleto (1/4)
08:37:55 : [AeroDynamik] - [Mensagem do servidor]> Adquiriu 1/4 de bônus.
08:38:03 : [AeroDynamik] - Matou o mob Aparicao. GenerID: 4231
08:38:03 : [AeroDynamik] - Dropado item Caixa_da_Sabedoria [4117] [0 0 0 0 0 0] em 2392x 2090y - Aparicao (1/1)
08:38:07 : [AeroDynamik] - [Mensagem do servidor]> + + + LEVEL UP + + +
08:38:07 : [AeroDynamik] - Level UP para level 75. Ev: 0/0 - 2392x 2090y
08:38:09 : [AeroDynamik] - [Mensagem do servidor]> Adquiriu 1/4 de bônus.
08:38:09 : [AeroDynamik] - Matou o mob Aparicao. GenerID: 4230
08:38:09 : [AeroDynamik] - Dropado item Caixa_da_Sabedoria [4117] [0 0 0 0 0 0] em 2392x 2090y - Aparicao (1/1)
08:38:15 : [AeroDynamik] - Matou o mob Esqueleto. GenerID: 4225
08:38:19 : [AeroDynamik] - [Mensagem do servidor]> Adquiriu 2/4 de bônus.
08:38:19 : [AeroDynamik] - Matou o mob Esqueleto. GenerID: 4225
08:38:21 : [AeroDynamik] - Matou o mob Aparicao. GenerID: 4231
08:38:21 : [AeroDynamik] - Dropado item Caixa_da_Sabedoria [4117] [0 0 0 0 0 0] em 2389x 2085y - Aparicao (1/1)
08:38:24 : [AeroDynamik] - Comando "/ =go"
08:38:24 : [AeroDynamik] - Mensagem enviada: =go
08:38:25 : [AeroDynamik] - Matou o mob Esqueleto. GenerID: 4228
08:38:25 : [AeroDynamik] - Dropado item Caixa_da_Sabedoria [4117] [0 0 0 0 0 0] em 2390x 2089y - Esqueleto (1/4)
08:38:33 : [AeroDynamik] - [Mensagem do servidor]> Adquiriu 3/4 de bônus.
08:38:33 : [AeroDynamik] - Matou o mob Esqueleto. GenerID: 4229
08:38:33 : [AeroDynamik] - Dropado item Caixa_da_Sabedoria [4117] [0 0 0 0 0 0] em 2390x 2089y - Esqueleto (1/4)
08:38:37 : [AeroDynamik] - Matou o mob Esqueleto. GenerID: 4229
08:38:37 : [AeroDynamik] - Dropado item Caixa_da_Sabedoria [4117] [0 0 0 0 0 0] em 2390x 2089y - Esqueleto (1/4)
08:38:42 : [AeroDynamik] - Comando "/gm +armia"
08:38:42 : [AeroDynamik] - Teleportado para a posição 2100 2100
08:38:48 : [AeroDynamik] - Comando "/gm +set level 114"
08:38:55 : [AeroDynamik] - Clicado no NPC [Guarda Carga]. Face 106. Race: 2. GenerateId: 3255. Posição do usuário: 2107x 2115y. Posição do NPC: 2102x 2113y
08:38:57 : [AeroDynamik] - [Mensagem do servidor]> + + + LEVEL UP + + +
08:38:57 : [AeroDynamik] - Level UP para level 115. Ev: 0/0 - 2107x 2115y
08:38:57 : [AeroDynamik] - [Mensagem do servidor]> Level permitido: [40 - 115]
08:38:58 : [AeroDynamik] - [Mensagem do servidor]> Level permitido: [40 - 115]
08:38:58 : [AeroDynamik] - [Mensagem do servidor]> Level permitido: [40 - 115]
08:38:58 : [AeroDynamik] - [Mensagem do servidor]> Level permitido: [40 - 115]
08:39:02 : [AeroDynamik] - Moveu item Aranha [2360] [88 27 39 20 0 0] do tipo INVENTÁRIO do slot 0 para tipo EQUIPAMENTO slot 14
08:41:26 : [AeroDynamik] - [Mensagem do servidor]> Limite máximo de pontos.
08:41:26 : [AeroDynamik] - [Mensagem do servidor]> Limite máximo de pontos.
08:41:36 : [AeroDynamik] - Moveu item Amuleto_de_Prata [551] [43 9 2 99 0 0] do tipo INVENTÁRIO do slot 2 para tipo EQUIPAMENTO slot 9
08:41:39 : [AeroDynamik] - Item Amuleto_de_Prata deletado [554] [0 0 0 0 0 0]. Slot 2
08:41:49 : [AeroDynamik] - Comprou uma skill Meditação. Learn antigo: 137583265572, Learn atual: 1295060251812298784. Learn da skill: 1124.
08:41:49 : [AeroDynamik] - [Mensagem do servidor]> Habilidade Meditação aprendida com sucesso
08:41:55 : [AeroDynamik] - [Mensagem do servidor]> Você precisa de mais pontos da linhagem.
08:42:07 : [AeroDynamik] - Teleportado para a posição 2482 1717
08:42:15 : [AeroDynamik] - Comando "/ =s tem q upar nos monstros em volta"
08:42:15 : [AeroDynamik] - Mensagem enviada: =s tem q upar nos monstros em volta
08:42:18 : [AeroDynamik] - Comando "/ =s tem q upar nos monstros em volta"
08:42:18 : [AeroDynamik] - Mensagem enviada: =s tem q upar nos monstros em volta
08:42:24 : [AeroDynamik] - Teleportado para a posição 2248 1559
08:42:24 : [AeroDynamik] - Solicitado teleporte na posição 2468x 1717y e teleportado para 2248x 1559y
08:42:28 : [AeroDynamik] - Comando "/ =teste"
08:42:28 : [AeroDynamik] - Mensagem enviada: =teste
08:42:33 : [AeroDynamik] - Comando "/ =sim tem que upar nos monstros em volta"
08:42:33 : [AeroDynamik] - Mensagem enviada: =sim tem que upar nos monstros em volta
08:42:37 : [AeroDynamik] - Comando "/ =sim tem que upar nos monstros "
08:42:37 : [AeroDynamik] - Mensagem enviada: =sim tem que upar nos monstros 
08:42:42 : [AeroDynamik] - Comando "/ =hmmm"
08:42:42 : [AeroDynamik] - Mensagem enviada: =hmmm
08:42:51 : [AeroDynamik] - Matou o mob Ciclope. GenerID: 1514
08:42:55 : [AeroDynamik] - Comando "/ =achei um bug kkkk"
08:42:55 : [AeroDynamik] - Mensagem enviada: =achei um bug kkkk
08:42:58 : [AeroDynamik] - Matou o mob Ciclope . GenerID: 1515
08:43:04 : [AeroDynamik] - Comando "/ =dependendo do tamanho da msg"
08:43:04 : [AeroDynamik] - Mensagem enviada: =dependendo do tamanho da msg
08:43:06 : [AeroDynamik] - Matou o mob Ciclope. GenerID: 1514
08:43:07 : [AeroDynamik] - Comando "/ =ela nao aparece no chat"
08:43:07 : [AeroDynamik] - Mensagem enviada: =ela nao aparece no chat
08:43:24 : [AeroDynamik] - Comando "/ =agua N"
08:43:24 : [AeroDynamik] - Mensagem enviada: =agua N
08:43:28 : [AeroDynamik] - Comando "/gm +armia"
08:43:28 : [AeroDynamik] - Teleportado para a posição 2100 2100
08:43:42 : [AeroDynamik] - Comando "/gm +agua"
08:43:42 : [AeroDynamik] - Teleportado para a posição 1972 1767
08:43:51 : [AeroDynamik] - Item Pergaminho_da_Água(N)LV1 [3173] [61 240 0 0 0 0] utilizado em 1966x 1770y
08:43:51 : [AeroDynamik] - [Mensagem do servidor]> Use na Zona Elemental da Água!
08:43:55 : [AeroDynamik] - Item Pergaminho_da_Água(N)LV1 [3173] [61 240 0 0 0 0] utilizado em 1965x 1775y
08:43:55 : [AeroDynamik] - Teleportado para a posição 1050 3555
08:43:55 : [AeroDynamik] - Água 3173 - Grupo teleportado para a área. Entradas restantes: 1080
08:43:55 : [AeroDynamik] - Água 3173 - Grupo: 0 - Nome: TheReverend
08:43:55 : [AeroDynamik] - Removido o Hp do mob Meio Orc   . HP removido: 1163. HP Atual: 2687
08:43:56 : [AeroDynamik] - Removido o Hp do mob Meio Orc   . HP removido: 1164. HP Atual: 1523
08:43:57 : [AeroDynamik] - Removido o Hp do mob Meio Orc   . HP removido: 1343. HP Atual: 180
08:43:58 : [AeroDynamik] - Removido o Hp do mob Meio Orc   . HP removido: 1314. HP Atual: 0
08:43:58 : [AeroDynamik] - Matou o mob Meio Orc   . GenerID: 22
08:43:59 : [AeroDynamik] - Removido o Hp do mob Meio Orc   . HP removido: 1359. HP Atual: 2491
08:44:00 : [AeroDynamik] - Removido o Hp do mob Meio Orc   . HP removido: 1172. HP Atual: 1319
08:44:01 : [AeroDynamik] - Removido o Hp do mob Meio Orc   . HP removido: 1173. HP Atual: 146
08:44:02 : [AeroDynamik] - Removido o Hp do mob Meio Orc   . HP removido: 1585. HP Atual: 0
08:44:02 : [AeroDynamik] - Matou o mob Meio Orc   . GenerID: 22
08:44:03 : [AeroDynamik] - Removido o Hp do mob Meio Orc   . HP removido: 1172. HP Atual: 2678
08:44:03 : [AeroDynamik] - Moveu item Lobo_Polar [3980] [96 24 1 21 0 0] do tipo INVENTÁRIO do slot 0 para tipo EQUIPAMENTO slot 14
08:44:04 : [AeroDynamik] - Removido o Hp do mob Meio Orc   . HP removido: 1169. HP Atual: 1509
08:44:05 : [AeroDynamik] - Removido o Hp do mob Meio Orc   . HP removido: 1169. HP Atual: 2681
08:44:07 : [AeroDynamik] - Removido o Hp do mob Meio Orc   . HP removido: 1314. HP Atual: 2536
08:44:07 : [AeroDynamik] - Removido o Hp do mob Meio Orc   . HP removido: 1169. HP Atual: 2681
08:44:08 : [AeroDynamik] - Removido o Hp do mob Meio Orc   . HP removido: 1169. HP Atual: 1512
08:44:09 : [AeroDynamik] - Removido o Hp do mob Meio Orc   . HP removido: 1163. HP Atual: 490
08:44:10 : [AeroDynamik] - Removido o Hp do mob Meio Orc   . HP removido: 1338. HP Atual: 1343
08:44:12 : [AeroDynamik] - Removido o Hp do mob Meio Orc   . HP removido: 1169. HP Atual: 174
08:44:13 : [AeroDynamik] - Removido o Hp do mob Meio Orc   . HP removido: 1176. HP Atual: 0
08:44:13 : [AeroDynamik] - Matou o mob Meio Orc   . GenerID: 22
08:44:14 : [AeroDynamik] - Removido o Hp do mob Meio Orc   . HP removido: 1169. HP Atual: 2681
08:44:15 : [AeroDynamik] - Removido o Hp do mob Meio Orc   . HP removido: 1335. HP Atual: 1346
08:44:16 : [AeroDynamik] - Removido o Hp do mob Meio Orc   . HP removido: 1164. HP Atual: 182
08:44:17 : [AeroDynamik] - Removido o Hp do mob Meio Orc   . HP removido: 1297. HP Atual: 0
08:44:17 : [AeroDynamik] - Matou o mob Meio Orc   . GenerID: 22
08:44:19 : [AeroDynamik] - Removido o Hp do mob Meio Orc   . HP removido: 1320. HP Atual: 2530
08:44:20 : [AeroDynamik] - Removido o Hp do mob Meio Orc   . HP removido: 1161. HP Atual: 1369
08:44:21 : [AeroDynamik] - Removido o Hp do mob Meio Orc   . HP removido: 1159. HP Atual: 210
08:44:23 : [AeroDynamik] - Removido o Hp do mob Meio Orc   . HP removido: 1166. HP Atual: 0
08:44:23 : [AeroDynamik] - Matou o mob Meio Orc   . GenerID: 22
08:44:24 : [AeroDynamik] - Removido o Hp do mob Meio Orc   . HP removido: 1338. HP Atual: 2512
08:44:25 : [AeroDynamik] - Removido o Hp do mob Meio Orc   . HP removido: 1176. HP Atual: 1336
08:44:26 : [AeroDynamik] - Comando "/gm +azran"
08:44:26 : [AeroDynamik] - Teleportado para a posição 2482 1709
08:44:26 : [AeroDynamik] - Enviando ataque com o distancia maior que o range do ataque básico. Distância: 1848. Distância 2: 1848. Range: 5.
08:44:31 : [AeroDynamik] - Comando "/gm +summon TheReverent"
08:44:31 : [AeroDynamik] - [Mensagem do servidor]> Usuário não está conectado
08:44:32 : [AeroDynamik] - Comando "/gm +summon TheReverend"
08:44:32 : [AeroDynamik] - [Mensagem do servidor]> Summonou TheReverend para 2482x 1709y
08:44:41 : [AeroDynamik] - Teleportado para a posição 1970 1711
08:44:41 : [AeroDynamik] - Solicitado teleporte na posição 2454x 1718y e teleportado para 1970x 1711y
08:44:42 : [AeroDynamik] - Removido o Hp do mob Ciclope Sang. HP removido: 1018. HP Atual: 1925
08:44:43 : [AeroDynamik] - Matou o mob Orc Medico. GenerID: 1640
08:44:48 : [AeroDynamik] - Matou o mob Orc Medico . GenerID: 1629
08:44:49 : [AeroDynamik] - Removido o Hp do mob Ciclope Sang. HP removido: 1185. HP Atual: 740
08:44:50 : [AeroDynamik] - Removido o Hp do mob Ciclope Sang. HP removido: 1018. HP Atual: 0
08:44:50 : [AeroDynamik] - Matou o mob Ciclope Sang. GenerID: 1640
08:44:58 : [AeroDynamik] - Matou o mob Orc Medico. GenerID: 1628
08:44:58 : [AeroDynamik] - Dropado item Machado [806] [59 32 74 6 59 0] em 1964x 1715y - Orc Medico (1/100)
08:45:02 : [AeroDynamik] - Matou o mob Orc Medico. GenerID: 1640
08:45:03 : [AeroDynamik] - Item Machado deletado [806] [59 32 74 6 59 0]. Slot 1
08:45:04 : [AeroDynamik] - Removido o Hp do mob Ciclope Sang. HP removido: 1028. HP Atual: 5472
08:45:05 : [AeroDynamik] - Item Baú_de_Experiência [4140] [61 240 0 0 0 0] utilizado em 1960x 1714y
08:45:05 : [AeroDynamik] - Item Baú_de_Caça [4139] [61 240 0 0 0 0] utilizado em 1960x 1714y
08:45:05 : [AeroDynamik] - Item Frango_Assado [3314] [61 240 0 0 0 0] utilizado em 1960x 1714y
08:45:06 : [AeroDynamik] - Removido o Hp do mob Ciclope Sang. HP removido: 1018. HP Atual: 4454
08:45:08 : [AeroDynamik] - Removido o Hp do mob Ciclope Sang. HP removido: 1018. HP Atual: 3436
08:45:09 : [AeroDynamik] - Removido o Hp do mob Ciclope Sang. HP removido: 1028. HP Atual: 2408
08:45:11 : [AeroDynamik] - Removido o Hp do mob Ciclope Sang. HP removido: 1178. HP Atual: 1230
08:45:12 : [AeroDynamik] - Removido o Hp do mob Ciclope Sang. HP removido: 1018. HP Atual: 212
08:45:13 : [AeroDynamik] - Removido o Hp do mob Ciclope Sang. HP removido: 1018. HP Atual: 0
08:45:13 : [AeroDynamik] - Matou o mob Ciclope Sang. GenerID: 1640
08:45:28 : [AeroDynamik] - Removido o Hp do mob Ciclope Sang. HP removido: 1194. HP Atual: 5306
08:45:29 : [AeroDynamik] - Removido o Hp do mob Ciclope Sang. HP removido: 1018. HP Atual: 4288
08:45:30 : [AeroDynamik] - Removido o Hp do mob Ciclope Sang. HP removido: 1018. HP Atual: 3270
08:45:31 : [AeroDynamik] - Removido o Hp do mob Ciclope Sang. HP removido: 1028. HP Atual: 2242
08:45:32 : [AeroDynamik] - Removido o Hp do mob Ciclope Sang. HP removido: 1018. HP Atual: 1224
08:45:34 : [AeroDynamik] - Comando "/gm +armia"
08:45:34 : [AeroDynamik] - Teleportado para a posição 2100 2100
08:45:34 : [AeroDynamik] - Enviando ataque com o distancia maior que o range do ataque básico. Distância: 373. Distância 2: 365. Range: 5.
08:45:39 : [AeroDynamik] - Teleportado para a posição 960 1761
08:46:04 : [AeroDynamik] - ADMIN5 Recebeu lParam (WndProc) como 32. Erro possível: 0. Desconectando o usuário.
08:46:04 : [AeroDynamik] - 2 Personagem foi desconectado. Permaneceu 00:16:06 minutos online
08:46:04 : [AeroDynamik] - Recebeu 1315 de gold em 1 mobs no total. Total de gold: 202402052
08:46:12 : =========================== NOVA SESSÃO ==========================
Tentativa de logar na conta (ADMIN5) - IP: 84.123.38.2 Mac: (0B:A7:7A:4E:00:4C). ClientId: 2
08:46:12 : Usuário logou no jogo com clientId 2. - Servidor 1. Gold do banco: 0
08:46:12 : [INFORMAÇÕES DO BANCO]
Gold: 0
[  0] - Chapéu(A)[1403] [10 13 59 0 59 0]
[ 11] - Robe(A)[1406] [43 1 71 40 60 4]
[ 40] - Poção_de_Cura[400] [0 0 0 0 0 0]
[ 51] - Escudo[1701] [0 0 0 0 0 0]
[ 80] - Botas(A)[1154] [43 0 73 12 59 0]
[ 85] - Peitoral(N)[1569] [43 0 0 0 0 0]
[ 93] - Poção_de_Cura[400] [0 0 0 0 0 0]

08:46:16 : Solicitou ir ao mundo...
08:46:16 : Recebido pedido para entrar no jogo
08:46:16 : Recebido informação do personagem completa.
08:46:16 : [AeroDynamik] - [INFORMAÇÕES DA CONTA]
Personagem online: AeroDynamik
Gold atual: 202402052
Level atual: 115
Experiência atual: 13336301
Evolução atual: Unknown
Tempo online até o momento: 00 dias e 00:00:04 horas
Posição atual: 2087x 2097y

Pontos NT: 0
Entradas Hall: 0
Info: 0
Soul: 0
Divina: 0/0/0 0:0:0
Sephira: 0/0/0 0:0:0
Saude: 0/0/0 0:0:0
Escritura: 0/0/0 0:0:0
Revigorante: 0/0/0 0:0:0
LastGuildKickout: 0/0/0 0:0:0
[EQUIPAMENTOS]
[00] - Rogue[31] [43 0 31 0 1 1]
[01] - Chapéu(M)[1597] [43 2 60 8 3 25]
[02] - Peitoral(M)[1600] [43 0 2 20 3 20]
[03] - Calça(M)[1603] [43 0 2 20 3 20]
[04] - Braçadeira(N)[1575] [43 8 0 0 0 0]
[05] - Botas(N)[1578] [43 8 0 0 0 0]
[06] - Arco[816] [43 8 0 0 0 0]
[09] - Amuleto_de_Prata[551] [43 9 2 99 0 0]
[14] - Lobo_Polar[3980] [96 24 1 21 0 0]

[INVENTÁRIO]
[00] - Aranha[2360] [245 26 39 20 0 0]
[01] - Pergaminho_da_Água(N)LV2[3174] [0 0 0 0 0 0]
[02] - Pergaminho_da_Água(N)LV1[3173] [61 239 0 0 0 0]
[03] - Chapéu(A)[1643] [43 9 3 25 26 18]
[04] - Peitoral(A)[1646] [43 9 2 30 71 70]
[05] - Ração_de_Aranha[2420] [61 120 0 0 0 0]
[06] - Resto_de_Oriharucon[419] [61 5 0 0 0 0]
[07] - Calça(A)[1649] [43 9 2 30 71 70]
[08] - Braçadeira(A)[1652] [43 9 54 18 72 30]
[09] - Botas(A)[1655] [43 9 73 30 74 18]
[10] - Arco[825] [2 45 0 0 0 0]
[11] - Poeira_de_Lactolerium[413] [61 240 0 0 0 0]
[12] - Baú_de_Experiência[4140] [61 239 0 0 0 0]
[13] - Baú_de_Caça[4139] [61 239 0 0 0 0]
[14] - Frango_Assado[3314] [61 239 0 0 0 0]
[63] - Marca_do_Assassino[547] [150 0 0 0 77 0]

[USUÁRIOS LOGADOS]
Nenhuma outra conta logada 

08:46:16 : [AeroDynamik] - Personagem AeroDynamik enviado ao mundo 2087x 2097y - Canal 1 - Cash da conta: 0. PowerLevel: 111
08:46:16 : [AeroDynamik] - Gold atual: 202402052. Classe: 3 Evolução: 0. Experiência: 13336301. Nível: 115. Info: 0. GuildID: 0. CP: 75. Pontos de Contribuição: 0. Limite: 0
08:46:16 : [AeroDynamik] - Logou no personagem AeroDynamik com baú de experiência ativo. Tempo: 1465
08:46:16 : [AeroDynamik] - Logou no personagem AeroDynamik com frango ativo. Tempo: 1793
08:46:16 : [AeroDynamik] - Enviado informações do personagem
08:46:17 : [AeroDynamik] - Comando "/day "
08:46:17 : [AeroDynamik] - [Mensagem do servidor]> !#11 2
08:46:29 : [AeroDynamik] - Teleportado para a posição 960 1761
08:46:30 : [AeroDynamik] - O usuï¿½rio nï¿½o enviou o pacote de integridade de macaddress
08:46:37 : [AeroDynamik] - ADMIN5 Recebeu lParam (WndProc) como 32. Erro possível: 0. Desconectando o usuário.
08:46:37 : [AeroDynamik] - 2 Personagem foi desconectado. Permaneceu 00:00:24 minutos online
08:46:57 : =========================== NOVA SESSÃO ==========================
Tentativa de logar na conta (ADMIN5) - IP: 84.123.38.2 Mac: (0B:A7:7A:4E:00:4C). ClientId: 1
08:46:57 : Usuário logou no jogo com clientId 1. - Servidor 1. Gold do banco: 0