
17:50:24 : =========================== NOVA SESSÃO ==========================
Tentativa de logar na conta (ADMIN5) - IP: 84.123.38.2 Mac: (0B:A7:7A:4E:00:4C). ClientId: 2
17:50:24 : Usuário logou no jogo com clientId 2. - Servidor 2. Gold do banco: 1000000000
17:50:24 : [INFORMAÇÕES DO BANCO]
Gold: 1000000000
[ 80] - Andaluz_N2370
[ 85] - Aranha2360
[ 90] - Ração_de_Aranha2420
[ 95] - Resto_de_Oriharucon419
[100] - Resto_de_Lactolerium420
[105] - Poeira_de_Lactolerium413
[200] - Caixa_do_Andarilho3479
[201] - Caixa_do_Andarilho3479

17:50:25 : [INFORMAÇÕES DA CONTA]
Personagem na seleção de personagem. Sem informações no momento
Tempo online até o momento: 00 dias e 00:00:01 horas

[USUÁRIOS LOGADOS]
Nenhuma outra conta logada 

17:50:30 : Solicitou ir ao mundo...
17:50:30 : Recebido pedido para entrar no jogo
17:50:30 : Recebido informação do personagem completa.
17:50:30 : [AeroDynamik] - [INFORMAÇÕES DA CONTA]
Personagem online: AeroDynamik
Gold atual: 497834810
Level atual: 399
Experiência atual: 4114840136
Evolução atual: Unknown
Tempo online até o momento: 00 dias e 00:00:05 horas
Posição atual: 2090x 2096y

Pontos NT: 0
Entradas Hall: 0
Info: 0
Soul: 0
Divina: 0/0/0 0:0:0
Sephira: 0/0/0 0:0:0
Saude: 0/0/0 0:0:0
Escritura: 0/0/0 0:0:0
Revigorante: 0/0/0 0:0:0
LastGuildKickout: 0/0/0 0:0:0
[EQUIPAMENTOS]
[00] - Rogue31
[01] - Chapéu(A)1643
[02] - Peitoral(A)1646
[03] - Calça(A)1649
[04] - Braçadeira(A)1652
[05] - Botas(A)1655
[06] - Arco_Guardião3556
[08] - Brinco_de_Titã592
[09] - Amuleto_de_Prata551
[10] - Pedra_Espiritual633
[11] - Ankh_da_Glória663
[12] - Conjunto_Esqueleto4153
[14] - Grifo_Sangrento2386

[INVENTÁRIO]
[00] - Fada_Vermelha(3dias)3902
[01] - Ultra_Poção_de_Mana409
[02] - [S]Caixa_Poção_de_Cura3322
[03] - Trombeta_Mágica3330
[04] - Ração_de_Fenrir2436
[05] - Fenrir2376
[06] - Gema_da_Siren658
[07] - Chapéu(M)1342
[08] - Baú_de_Experiência4140
[09] - Ração_de_Fenrir2436
[10] - Chapéu(M)1342
[11] - Luvas(M)1501
[12] - Pedido_de_Caça(Kult)3435
[13] - Baú_de_Caça4139
[14] - Frango_Assado3314
[15] - Poeira_de_Lactolerium413
[16] - Jóia_da_Absorção3204
[17] - Jóia_da_Proteção3205
[18] - Jóia_do_Poder3206
[19] - Jóia_da_Precisão3208
[60] - Bolsa_do_Andarilho3467
[61] - Bolsa_do_Andarilho3467
[63] - Marca_do_Assassino547

[USUÁRIOS LOGADOS]
Nenhuma outra conta logada 

17:50:30 : [AeroDynamik] - Personagem AeroDynamik enviado ao mundo 2090x 2096y - Canal 2 - Cash da conta: 15918. PowerLevel: 4127
17:50:30 : [AeroDynamik] - Gold atual: 497834810. Classe: 3 Evolução: 0. Experiência: 4114840136. Nível: 399. Info: 0. GuildID: 0. CP: 75. Pontos de Contribuição: 0. Limite: 0
17:50:30 : [AeroDynamik] - Logou no personagem AeroDynamik com poção divina ativo. Validade: 21/2/2021 9:16:26
17:50:30 : [AeroDynamik] - Logou no personagem AeroDynamik com frango ativo. Tempo: 1011
17:50:30 : [AeroDynamik] - Logou no personagem AeroDynamik com baú de experiência ativo. Tempo: 2191
17:50:30 : [AeroDynamik] - Resetado a contagem de entradas água! Day: 25-26. Total: 0
17:50:30 : [AeroDynamik] - [Mensagem do servidor]> O Kefra foi derrotado
17:50:30 : [AeroDynamik] - Enviado informações do personagem
17:50:31 : [AeroDynamik] - Comando "/day "
17:50:31 : [AeroDynamik] - [Mensagem do servidor]> !#11 2
17:50:35 : [AeroDynamik] - Moveu item Chapéu(A) [1643] [43 237 3 25 26 18] do tipo EQUIPAMENTO do slot 1 para tipo INVENTÁRIO slot 20
17:50:37 : [AeroDynamik] - Moveu item Chapéu(A) [1643] [43 237 3 25 26 18] do tipo INVENTÁRIO do slot 20 para tipo EQUIPAMENTO slot 1
17:50:43 : [AeroDynamik] - Moveu item Conjunto_Esqueleto [4153] [96 21 2 21 0 32] do tipo EQUIPAMENTO do slot 12 para tipo INVENTÁRIO slot 20
17:50:43 : [AeroDynamik] - O usuï¿½rio nï¿½o enviou o pacote de integridade de macaddress
17:50:44 : [AeroDynamik] - Moveu item Conjunto_Esqueleto [4153] [96 21 2 21 0 32] do tipo INVENTÁRIO do slot 20 para tipo EQUIPAMENTO slot 12
17:50:49 : [AeroDynamik] - Moveu item Arco_Guardião [3556] [43 9 2 36 0 0] do tipo EQUIPAMENTO do slot 6 para tipo INVENTÁRIO slot 20
17:50:58 : [AeroDynamik] - Moveu item Grifo_Sangrento [2386] [116 97 100 60 10 0] do tipo EQUIPAMENTO do slot 14 para tipo INVENTÁRIO slot 25
17:51:00 : [AeroDynamik] - Moveu item Grifo_Sangrento [2386] [116 97 100 60 10 0] do tipo INVENTÁRIO do slot 25 para tipo EQUIPAMENTO slot 14
17:51:35 : [AeroDynamik] - Moveu item Arco [825] [2 45 0 0 0 0] do tipo INVENTÁRIO do slot 21 para tipo EQUIPAMENTO slot 6
17:51:38 : [AeroDynamik] - Item Poeira_de_Lactolerium [413] [61 52 0 0 0 0] utilizado em 0x 0y
17:51:38 : [AeroDynamik] - [Mensagem do servidor]> Refinação sucedida.
17:51:38 : [AeroDynamik] - Item Arco refinado com sucesso para 1 - 825 87/100
17:51:45 : [AeroDynamik] - ADMIN5 Recebeu lParam (WndProc) como 32. Erro possível: 10053. Desconectando o usuário.
17:51:45 : [AeroDynamik] - 2 Personagem foi desconectado. Permaneceu 00:01:20 minutos online
17:53:18 : =========================== NOVA SESSÃO ==========================
Tentativa de logar na conta (ADMIN5) - IP: 84.123.38.2 Mac: (0B:A7:7A:4E:00:4C). ClientId: 2
17:53:18 : Usuário logou no jogo com clientId 2. - Servidor 2. Gold do banco: 1000000000
17:53:18 : [INFORMAÇÕES DO BANCO]
Gold: 1000000000
[ 80] - Andaluz_N2370
[ 85] - Aranha2360
[ 90] - Ração_de_Aranha2420
[ 95] - Resto_de_Oriharucon419
[100] - Resto_de_Lactolerium420
[105] - Poeira_de_Lactolerium413
[200] - Caixa_do_Andarilho3479
[201] - Caixa_do_Andarilho3479

17:53:23 : Solicitou ir ao mundo...
17:53:23 : Recebido pedido para entrar no jogo
17:53:23 : Recebido informação do personagem completa.
17:53:23 : [AeroDynamik] - [INFORMAÇÕES DA CONTA]
Personagem online: AeroDynamik
Gold atual: 497834808
Level atual: 399
Experiência atual: 4114840136
Evolução atual: Unknown
Tempo online até o momento: 00 dias e 00:00:05 horas
Posição atual: 2089x 2100y

Pontos NT: 0
Entradas Hall: 0
Info: 0
Soul: 0
Divina: 0/0/0 0:0:0
Sephira: 0/0/0 0:0:0
Saude: 0/0/0 0:0:0
Escritura: 0/0/0 0:0:0
Revigorante: 0/0/0 0:0:0
LastGuildKickout: 0/0/0 0:0:0
[EQUIPAMENTOS]
[00] - Rogue31
[01] - Chapéu(A)1643
[02] - Peitoral(A)1646
[03] - Calça(A)1649
[04] - Braçadeira(A)1652
[05] - Botas(A)1655
[06] - Arco825
[08] - Brinco_de_Titã592
[09] - Amuleto_de_Prata551
[10] - Pedra_Espiritual633
[11] - Ankh_da_Glória663
[12] - Conjunto_Esqueleto4153
[14] - Grifo_Sangrento2386

[INVENTÁRIO]
[00] - Fada_Vermelha(3dias)3902
[01] - Ultra_Poção_de_Mana409
[02] - [S]Caixa_Poção_de_Cura3322
[03] - Trombeta_Mágica3330
[04] - Ração_de_Fenrir2436
[05] - Fenrir2376
[06] - Gema_da_Siren658
[07] - Chapéu(M)1342
[08] - Baú_de_Experiência4140
[09] - Ração_de_Fenrir2436
[10] - Chapéu(M)1342
[11] - Luvas(M)1501
[12] - Pedido_de_Caça(Kult)3435
[13] - Baú_de_Caça4139
[14] - Frango_Assado3314
[15] - Poeira_de_Lactolerium413
[16] - Jóia_da_Absorção3204
[17] - Jóia_da_Proteção3205
[18] - Jóia_do_Poder3206
[19] - Jóia_da_Precisão3208
[20] - Arco_Guardião3556
[22] - Arco825
[60] - Bolsa_do_Andarilho3467
[61] - Bolsa_do_Andarilho3467
[63] - Marca_do_Assassino547

[USUÁRIOS LOGADOS]
Nenhuma outra conta logada 

17:53:23 : [AeroDynamik] - Personagem AeroDynamik enviado ao mundo 2089x 2100y - Canal 2 - Cash da conta: 15918. PowerLevel: 3677
17:53:23 : [AeroDynamik] - Gold atual: 497834808. Classe: 3 Evolução: 0. Experiência: 4114840136. Nível: 399. Info: 0. GuildID: 0. CP: 75. Pontos de Contribuição: 0. Limite: 0
17:53:23 : [AeroDynamik] - Logou no personagem AeroDynamik com poção divina ativo. Validade: 21/2/2021 9:16:26
17:53:23 : [AeroDynamik] - Logou no personagem AeroDynamik com frango ativo. Tempo: 1002
17:53:23 : [AeroDynamik] - Logou no personagem AeroDynamik com baú de experiência ativo. Tempo: 2182
17:53:23 : [AeroDynamik] - [Mensagem do servidor]> O Kefra foi derrotado
17:53:23 : [AeroDynamik] - Enviado informações do personagem
17:53:24 : [AeroDynamik] - Comando "/day "
17:53:24 : [AeroDynamik] - [Mensagem do servidor]> !#11 2
17:53:31 : [AeroDynamik] - O usuï¿½rio nï¿½o enviou o pacote de integridade de macaddress
17:53:33 : [AeroDynamik] - Item Poeira_de_Lactolerium [413] [61 51 0 0 0 0] utilizado em 0x 0y
17:53:33 : [AeroDynamik] - [Mensagem do servidor]> Refinação sucedida.
17:53:33 : [AeroDynamik] - Item Arco refinado com sucesso para 2 - 825 71/100
17:53:37 : [AeroDynamik] - Moveu item Poeira_de_Lactolerium [413] [61 50 0 0 0 0] do tipo INVENTÁRIO do slot 15 para tipo INVENTÁRIO slot 25
17:53:38 : [AeroDynamik] - Item Poeira_de_Lactolerium [413] [61 50 0 0 0 0] utilizado em 0x 0y
17:53:38 : [AeroDynamik] - [Mensagem do servidor]> Refinação sucedida.
17:53:38 : [AeroDynamik] - Item Arco refinado com sucesso para 3 - 825 66/100
17:53:40 : [AeroDynamik] - Item Poeira_de_Lactolerium [413] [61 49 0 0 0 0] utilizado em 0x 0y
17:53:40 : [AeroDynamik] - [Mensagem do servidor]> Refinação sucedida.
17:53:40 : [AeroDynamik] - Item Arco refinado com sucesso para 4 - 825 50/100
17:53:42 : [AeroDynamik] - Item Poeira_de_Lactolerium [413] [61 48 0 0 0 0] utilizado em 0x 0y
17:53:42 : [AeroDynamik] - [Mensagem do servidor]> Refinação sucedida.
17:53:42 : [AeroDynamik] - Item Arco refinado com sucesso para 5 - 825 68/100
17:53:44 : [AeroDynamik] - Item Poeira_de_Lactolerium [413] [61 47 0 0 0 0] utilizado em 0x 0y
17:53:44 : [AeroDynamik] - [Mensagem do servidor]> Refinação sucedida.
17:53:44 : [AeroDynamik] - Item Arco refinado com sucesso para 6 - 825 35/100
17:53:45 : [AeroDynamik] - Item Poeira_de_Lactolerium [413] [61 46 0 0 0 0] utilizado em 0x 0y
17:53:45 : [AeroDynamik] - [Mensagem do servidor]> Refinação sucedida.
17:53:45 : [AeroDynamik] - Item Arco refinado com sucesso para 7 - 825 65/65
17:53:49 : [AeroDynamik] - Item Poeira_de_Lactolerium [413] [61 45 0 0 0 0] utilizado em 0x 0y
17:53:49 : [AeroDynamik] - [Mensagem do servidor]> Refinação sucedida.
17:53:49 : [AeroDynamik] - Item Arco refinado com sucesso para 8 - 825 48/50
17:53:50 : [AeroDynamik] - Item Poeira_de_Lactolerium [413] [61 44 0 0 0 0] utilizado em 0x 0y
17:53:50 : [AeroDynamik] - [Mensagem do servidor]> Refinação sucedida.
17:53:50 : [AeroDynamik] - Item Arco refinado com sucesso para 9 - 825 24/45
17:53:52 : [AeroDynamik] - Moveu item Arco [825] [2 45 0 0 0 0] do tipo INVENTÁRIO do slot 22 para tipo EQUIPAMENTO slot 6
17:53:56 : [AeroDynamik] - Item Poeira_de_Lactolerium [413] [61 43 0 0 0 0] utilizado em 0x 0y
17:53:56 : [AeroDynamik] - [Mensagem do servidor]> Refinação sucedida.
17:53:56 : [AeroDynamik] - Item Arco refinado com sucesso para 1 - 825 77/100
17:53:57 : [AeroDynamik] - Item Poeira_de_Lactolerium [413] [61 42 0 0 0 0] utilizado em 0x 0y
17:53:57 : [AeroDynamik] - [Mensagem do servidor]> Refinação sucedida.
17:53:57 : [AeroDynamik] - Item Arco refinado com sucesso para 2 - 825 30/100
17:53:59 : [AeroDynamik] - Item Poeira_de_Lactolerium [413] [61 41 0 0 0 0] utilizado em 0x 0y
17:53:59 : [AeroDynamik] - [Mensagem do servidor]> Refinação sucedida.
17:53:59 : [AeroDynamik] - Item Arco refinado com sucesso para 3 - 825 63/100
17:54:00 : [AeroDynamik] - Item Poeira_de_Lactolerium [413] [61 40 0 0 0 0] utilizado em 0x 0y
17:54:00 : [AeroDynamik] - [Mensagem do servidor]> Refinação sucedida.
17:54:00 : [AeroDynamik] - Item Arco refinado com sucesso para 4 - 825 88/100
17:54:01 : [AeroDynamik] - Item Poeira_de_Lactolerium [413] [61 39 0 0 0 0] utilizado em 0x 0y
17:54:01 : [AeroDynamik] - [Mensagem do servidor]> Refinação sucedida.
17:54:01 : [AeroDynamik] - Item Arco refinado com sucesso para 5 - 825 38/100
17:54:03 : [AeroDynamik] - Item Poeira_de_Lactolerium [413] [61 38 0 0 0 0] utilizado em 0x 0y
17:54:03 : [AeroDynamik] - [Mensagem do servidor]> Refinação sucedida.
17:54:03 : [AeroDynamik] - Item Arco refinado com sucesso para 6 - 825 72/100
17:54:04 : [AeroDynamik] - Item Poeira_de_Lactolerium [413] [61 37 0 0 0 0] utilizado em 0x 0y
17:54:04 : [AeroDynamik] - [Mensagem do servidor]> Refinação sucedida.
17:54:04 : [AeroDynamik] - Item Arco refinado com sucesso para 7 - 825 12/65
17:54:06 : [AeroDynamik] - Item Poeira_de_Lactolerium [413] [61 36 0 0 0 0] utilizado em 0x 0y
17:54:06 : [AeroDynamik] - [Mensagem do servidor]> Refinação NÃO sucedida.
17:54:06 : [AeroDynamik] - Falha na refinação de Arco para 8 - 825 55/50
17:54:07 : [AeroDynamik] - Item Poeira_de_Lactolerium [413] [61 35 0 0 0 0] utilizado em 0x 0y
17:54:07 : [AeroDynamik] - [Mensagem do servidor]> Refinação NÃO sucedida.
17:54:07 : [AeroDynamik] - Falha na refinação de Arco para 8 - 825 83/50
17:54:09 : [AeroDynamik] - Item Poeira_de_Lactolerium [413] [61 34 0 0 0 0] utilizado em 0x 0y
17:54:09 : [AeroDynamik] - [Mensagem do servidor]> Refinação NÃO sucedida.
17:54:09 : [AeroDynamik] - Falha na refinação de Arco para 8 - 825 96/50
17:54:10 : [AeroDynamik] - Item Poeira_de_Lactolerium [413] [61 33 0 0 0 0] utilizado em 0x 0y
17:54:10 : [AeroDynamik] - [Mensagem do servidor]> Refinação NÃO sucedida.
17:54:10 : [AeroDynamik] - Falha na refinação de Arco para 8 - 825 92/50
17:54:12 : [AeroDynamik] - Item Poeira_de_Lactolerium [413] [61 32 0 0 0 0] utilizado em 0x 0y
17:54:12 : [AeroDynamik] - [Mensagem do servidor]> Refinação NÃO sucedida.
17:54:12 : [AeroDynamik] - Falha na refinação de Arco para 8 - 825 57/50
17:54:13 : [AeroDynamik] - Item Poeira_de_Lactolerium [413] [61 31 0 0 0 0] utilizado em 0x 0y
17:54:13 : [AeroDynamik] - [Mensagem do servidor]> Refinação NÃO sucedida.
17:54:13 : [AeroDynamik] - Falha na refinação de Arco para 8 - 825 75/50
17:54:15 : [AeroDynamik] - Item Poeira_de_Lactolerium [413] [61 30 0 0 0 0] utilizado em 0x 0y
17:54:15 : [AeroDynamik] - [Mensagem do servidor]> Refinação NÃO sucedida.
17:54:15 : [AeroDynamik] - Falha na refinação de Arco para 8 - 825 95/50
17:54:16 : [AeroDynamik] - Item Poeira_de_Lactolerium [413] [61 29 0 0 0 0] utilizado em 0x 0y
17:54:16 : [AeroDynamik] - [Mensagem do servidor]> Refinação NÃO sucedida.
17:54:16 : [AeroDynamik] - Falha na refinação de Arco para 8 - 825 75/50
17:54:17 : [AeroDynamik] - Item Poeira_de_Lactolerium [413] [61 28 0 0 0 0] utilizado em 0x 0y
17:54:17 : [AeroDynamik] - [Mensagem do servidor]> Refinação sucedida.
17:54:17 : [AeroDynamik] - Item Arco refinado com sucesso para 8 - 825 28/50
17:54:19 : [AeroDynamik] - Item Poeira_de_Lactolerium [413] [61 27 0 0 0 0] utilizado em 0x 0y
17:54:19 : [AeroDynamik] - [Mensagem do servidor]> Refinação sucedida.
17:54:19 : [AeroDynamik] - Item Arco refinado com sucesso para 9 - 825 14/45
17:54:43 : [AeroDynamik] - Comando "/gm +move azran"
17:54:43 : [AeroDynamik] - Teleportado para a posição 2482 1709
17:54:53 : [AeroDynamik] - Clicado no NPC [Compounder]. Face 54. Race: 2. GenerateId: 1262. Posição do usuário: 2530x 1730y. Posição do NPC: 2530x 1732y
17:55:03 : [AeroDynamik] - Compounder - 0 - Arco 825 - 22
17:55:03 : [AeroDynamik] - Compounder - 1 - Garnet 2444 - 30
17:55:03 : [AeroDynamik] - Compounder - 2 - Elmo(A) 1493 - 21
17:55:03 : [AeroDynamik] - Compounder - 3 - Elmo(A) 1493 - 26
17:55:03 : [AeroDynamik] - Compounder - 4 - Elmo(A) 1493 - 27
17:55:03 : [AeroDynamik] - Compounder - 5 - Elmo(A) 1493 - 15
17:55:03 : [AeroDynamik] - Compounder - 6 - Sem item

17:55:03 : [AeroDynamik] - Compounder - 7 - Sem item

17:55:03 : [AeroDynamik] - Compor Anct - 0 - Arco [825] [2 45 43 9 0 0] 98 - Slot: 22
17:55:03 : [AeroDynamik] - Compor Anct - 1 - Garnet [2444] [0 0 0 0 0 0] 98 - Slot: 30
17:55:03 : [AeroDynamik] - Compor Anct - 2 - Elmo(A) [1493] [43 9 3 25 60 12] 98 - Slot: 21
17:55:03 : [AeroDynamik] - Compor Anct - 3 - Elmo(A) [1493] [43 9 3 25 60 12] 98 - Slot: 26
17:55:03 : [AeroDynamik] - Compor Anct - 4 - Elmo(A) [1493] [43 9 3 25 60 12] 98 - Slot: 27
17:55:03 : [AeroDynamik] - Compor Anct - 5 - Elmo(A) [1493] [43 9 3 25 60 12] 98 - Slot: 15
17:55:03 : [AeroDynamik] - Compor Anct - 6 - Sem item
17:55:04 : [AeroDynamik] - Compor Anct - 7 - Sem item
17:55:04 : [AeroDynamik] - [Mensagem do servidor]> Falha na composição do item. (98/41)
17:55:04 : [AeroDynamik] - Falha na composição do item  - 825 2 45 43 9 0 0 - 98 41
17:55:04 : [AeroDynamik] - [Mensagem do servidor]: AeroDynamik falhou na composição do item Arco para Ancient
17:55:35 : [AeroDynamik] - Moveu item Arco [825] [2 45 43 9 0 0] do tipo EQUIPAMENTO do slot 6 para tipo INVENTÁRIO slot 22
17:55:37 : [AeroDynamik] - Clicado no NPC [Compounder]. Face 54. Race: 2. GenerateId: 1262. Posição do usuário: 2530x 1733y. Posição do NPC: 2529x 1733y
17:55:43 : [AeroDynamik] - Compounder - 0 - Arco 825 - 22
17:55:43 : [AeroDynamik] - Compounder - 1 - Garnet 2444 - 31
17:55:43 : [AeroDynamik] - Compounder - 2 - Elmo(A) 1493 - 23
17:55:43 : [AeroDynamik] - Compounder - 3 - Elmo(A) 1493 - 28
17:55:43 : [AeroDynamik] - Compounder - 4 - Elmo(A) 1493 - 29
17:55:43 : [AeroDynamik] - Compounder - 5 - Elmo(A) 1493 - 24
17:55:43 : [AeroDynamik] - Compounder - 6 - Sem item

17:55:43 : [AeroDynamik] - Compounder - 7 - Sem item

17:55:43 : [AeroDynamik] - Compor Anct - 0 - Arco [825] [2 45 43 9 0 0] 93 - Slot: 22
17:55:43 : [AeroDynamik] - Compor Anct - 1 - Garnet [2444] [0 0 0 0 0 0] 93 - Slot: 31
17:55:43 : [AeroDynamik] - Compor Anct - 2 - Elmo(A) [1493] [43 9 3 25 60 12] 93 - Slot: 23
17:55:43 : [AeroDynamik] - Compor Anct - 3 - Elmo(A) [1493] [43 9 3 25 60 12] 93 - Slot: 28
17:55:43 : [AeroDynamik] - Compor Anct - 4 - Elmo(A) [1493] [43 9 3 25 60 12] 93 - Slot: 29
17:55:43 : [AeroDynamik] - Compor Anct - 5 - Elmo(A) [1493] [43 9 3 25 60 12] 93 - Slot: 24
17:55:43 : [AeroDynamik] - Compor Anct - 6 - Sem item
17:55:43 : [AeroDynamik] - Compor Anct - 7 - Sem item
17:55:43 : [AeroDynamik] - [Mensagem do servidor]> Falha na composição do item. (93/41)
17:55:43 : [AeroDynamik] - Falha na composição do item  - 825 2 45 43 9 0 0 - 93 41
17:55:43 : [AeroDynamik] - [Mensagem do servidor]: AeroDynamik falhou na composição do item Arco para Ancient
17:55:52 : [AeroDynamik] - Comando "/gm +move armia"
17:55:52 : [AeroDynamik] - Teleportado para a posição 2100 2100
17:56:06 : [AeroDynamik] - Moveu item Arco [825] [2 45 0 0 0 0] do tipo INVENTÁRIO do slot 15 para tipo EQUIPAMENTO slot 6
17:56:10 : [AeroDynamik] - Clicado no NPC [Guarda Carga]. Face 106. Race: 2. GenerateId: 3255. Posição do usuário: 2107x 2115y. Posição do NPC: 2102x 2113y
17:56:11 : [AeroDynamik] - Moveu item Arco_Guardião [3556] [43 9 2 36 0 0] do tipo INVENTÁRIO do slot 20 para tipo BANCO slot 0
17:56:15 : [AeroDynamik] - Item Poeira_de_Lactolerium [413] [61 26 0 0 0 0] utilizado em 0x 0y
17:56:15 : [AeroDynamik] - [Mensagem do servidor]> Refinação sucedida.
17:56:15 : [AeroDynamik] - Item Arco refinado com sucesso para 1 - 825 85/100
17:56:24 : [AeroDynamik] - ADMIN5 Recebeu lParam (WndProc) como 32. Erro possível: 10053. Desconectando o usuário.
17:56:24 : [AeroDynamik] - 2 Personagem foi desconectado. Permaneceu 00:03:03 minutos online