
15:24:38 : =========================== NOVA SESSÃO ==========================
Tentativa de logar na conta (ADMIN4) - IP: 84.123.38.2 Mac: (0B:A7:7A:4E:00:4C). ClientId: 5
15:24:38 : Conta ADMIN5 logado na conta
Status da conta: JOGANDO
Personagem: AeroDynamik

15:24:38 : Usuário logou no jogo com clientId 5. - Servidor 2. Gold do banco: 0
15:24:38 : [INFORMAÇÕES DO BANCO]
Gold: 0
[  0] - Armadura[1221] [43 7 71 70 2 30]

15:24:39 : [INFORMAÇÕES DA CONTA]
Personagem na seleção de personagem. Sem informações no momento
Tempo online até o momento: 00 dias e 00:00:01 horas

[USUÁRIOS LOGADOS]
[ADMIN5]	USER_PLAY	[AeroDynamik] (level: 399 ev: -1)	

15:24:44 : Solicitou ir ao mundo...
15:24:44 : Recebido pedido para entrar no jogo
15:24:44 : Recebido informação do personagem completa.
15:24:44 : [Sharii] - [INFORMAÇÕES DA CONTA]
Personagem online: Sharii
Gold atual: 0
Level atual: 399
Experiência atual: 9204720084
Evolução atual: Unknown
Tempo online até o momento: 00 dias e 00:00:06 horas
Posição atual: 2098x 2106y

Pontos NT: 0
Entradas Hall: 0
Info: 0
Soul: 0
Divina: 0/0/0 0:0:0
Sephira: 0/0/0 0:0:0
Saude: 0/0/0 0:0:0
Escritura: 0/0/0 0:0:0
Revigorante: 0/0/0 0:0:0
LastGuildKickout: 0/0/0 0:0:0
[EQUIPAMENTOS]
[00] - Rogue[31] [43 0 31 0 1 1]
[01] - Elmo[1660] [43 253 0 0 0 0]
[02] - Armadura[1661] [120 253 0 0 0 0]
[03] - Calça[1662] [43 253 0 0 0 0]
[04] - Luvas[1663] [43 253 0 0 0 0]
[05] - Botas[1664] [43 253 0 0 0 0]
[06] - Arco_Divino(Anct)[2550] [43 253 0 0 0 0]

[INVENTÁRIO]
[00] - Poeira_de_Lactolerium[413] [61 112 0 0 0 0]
[01] - Braçadeira(A)[1652] [43 9 0 0 0 0]
[02] - Poeira_de_Lactolerium[413] [61 1 0 0 0 0]
[03] - Poeira_de_Lactolerium[413] [61 1 0 0 0 0]
[04] - Poeira_de_Lactolerium[413] [61 1 0 0 0 0]
[05] - Poeira_de_Lactolerium[413] [61 1 0 0 0 0]
[06] - Peitoral(A)[1646] [43 9 0 0 0 0]
[07] - Poeira_de_Lactolerium[413] [61 1 0 0 0 0]
[08] - Poeira_de_Lactolerium[413] [61 1 0 0 0 0]
[09] - Poeira_de_Lactolerium[413] [61 1 0 0 0 0]
[10] - Calça(A)[1649] [43 9 0 0 0 0]
[11] - Botas(A)[1655] [43 9 0 0 0 0]
[13] - Poeira_de_Lactolerium[413] [61 1 0 0 0 0]
[14] - Poeira_de_Lactolerium[413] [61 1 0 0 0 0]
[15] - Chapéu(A)[1643] [43 9 26 12 0 0]
[16] - Chapéu(A)[1643] [43 9 4 50 0 0]
[17] - Chapéu(A)[1643] [43 9 0 0 0 0]
[18] - Chapéu(A)[1643] [43 9 3 20 0 0]
[19] - Arco_do_Guardião_(Anct)[3621] [43 250 0 0 0 0]
[20] - Arco_do_Guardião_(Anct)[3624] [43 253 0 0 0 0]
[21] - Pegasus[2382] [120 120 120 120 0 0]
[22] - Esfera_da_Sorte(A)[4130] [0 0 0 0 0 0]
[23] - Chapéu(A)[1643] [43 9 60 8 0 0]
[24] - Baú_de_Experiência[4140] [61 10 0 0 0 0]
[25] - Pedido_de_Caça(Kult)[3435] [61 9 0 0 0 0]
[26] - Safira[697] [0 0 0 0 0 0]
[27] - Safira[697] [0 0 0 0 0 0]
[28] - Safira[697] [0 0 0 0 0 0]
[63] - Marca_do_Assassino[547] [87 0 0 0 77 0]

[USUÁRIOS LOGADOS]
[ADMIN5]	USER_PLAY	[AeroDynamik] (level: 399 ev: -1)	

15:24:44 : [Sharii] - Personagem Sharii enviado ao mundo 2098x 2106y - Canal 2 - Cash da conta: 959. PowerLevel: 4531
15:24:44 : [Sharii] - Gold atual: 0. Classe: 3 Evolução: 0. Experiência: 9204720084. Nível: 399. Info: 0. GuildID: 0. CP: 12. Pontos de Contribuição: 0. Limite: 0
15:24:44 : [Sharii] - Logou no personagem Sharii com poção divina ativo. Validade: 20/2/2021 14:13:4
15:24:44 : [Sharii] - Resetado a contagem de entradas água! Day: 35-39. Total: 0
15:24:44 : [Sharii] - [Mensagem do servidor]> A guild [Teste123] derrotou Kefra
15:24:44 : [Sharii] - Enviado informações do personagem
15:24:45 : [Sharii] - Comando "/day "
15:24:45 : [Sharii] - [Mensagem do servidor]> !#11 2
15:25:00 : [Sharii] - O usuï¿½rio nï¿½o enviou o pacote de integridade de macaddress
15:25:07 : [Sharii] - Personagem deu personagem
15:25:13 : Solicitou ir ao mundo...
15:25:13 : Recebido pedido para entrar no jogo
15:25:13 : Recebido informação do personagem completa.
15:25:13 : [Shaaari] - [INFORMAÇÕES DA CONTA]
Personagem online: Shaaari
Gold atual: 0
Level atual: 199
Experiência atual: 4000000000
Evolução atual: Arch
Tempo online até o momento: 00 dias e 00:00:34 horas
Posição atual: 2087x 2094y

Pontos NT: 12
Entradas Hall: 0
Info: 103079215600
Soul: 0
Divina: 0/0/0 0:0:0
Sephira: 0/0/0 0:0:0
Saude: 0/0/0 0:0:0
Escritura: 22/1/2021 22:15:6
Revigorante: 0/0/0 0:0:0
LastGuildKickout: 0/0/0 0:0:0
[EQUIPAMENTOS]
[00] - Warrior[9] [43 0 9 2 1 1]
[01] - Cythera_Arcana[3507] [43 250 0 0 0 0]
[02] - Armadura[1221] [43 251 0 0 0 0]
[03] - Calça[1222] [43 251 0 0 0 0]
[04] - Luvas[1223] [43 251 0 0 0 0]
[05] - Botas[1224] [43 251 0 0 0 0]
[06] - Dardo[885] [0 0 0 0 0 0]
[08] - Brinco_de_Titã[592] [0 0 0 0 0 0]
[09] - Amuleto_de_Prata[551] [43 9 2 99 0 0]
[10] - Pedra_Espiritual[633] [43 9 0 0 0 0]
[11] - Ankh_da_Glória[663] [43 9 0 0 0 0]
[14] - Tigre_de_Fogo[2379] [24 121 120 120 0 0]
[15] - Mestre_dos_Aventureiros[3199] [0 0 0 0 0 0]

[INVENTÁRIO]
[00] - Eirenus(Anct)[2863] [43 250 0 0 0 0]
[01] - Skytalos(Anct)[2551] [43 241 0 0 0 0]
[02] - Skytalos(Anct)[2551] [43 241 0 0 0 0]
[03] - Pergaminho_da_Água(A)LV1[3182] [0 0 0 0 0 0]
[04] - Pista_de_Runas[5134] [0 0 0 0 0 0]
[05] - Poeira_de_Lactolerium[413] [61 5 204 204 204 204]
[06] - Poeira_de_Lactolerium[413] [61 4 204 204 204 204]
[07] - Basileus(Anct)[2938] [43 253 0 0 0 0]
[08] - Garra[836] [43 0 74 12 2 9]
[09] - Botas(A)[1154] [43 0 73 18 60 4]
[10] - Skytalos(Anct)[2551] [43 237 0 0 0 0]
[11] - Refinação_Abençoada[3338] [0 0 0 0 0 0]
[12] - Barra_de_Prata_(1Bi)[4011] [0 0 0 0 0 0]
[13] - Skytalos(Anct)[2551] [43 241 0 0 0 0]
[14] - Pedido_de_Caça(Kult)[3435] [61 9 0 0 0 0]
[15] - Thoroughbred[3987] [96 20 2 21 0 0]
[16] - Selo_do_Guerreiro[4146] [61 196 0 0 0 0]
[17] - Poeira_de_Lactolerium[413] [61 193 0 0 0 0]
[18] - Feijão_Mágico(Amarelo)[3415] [0 0 0 0 0 0]
[19] - Feijão_Mágico(Amarelo)[3415] [0 0 0 0 0 0]
[20] - Jóia_da_Magia[3209] [61 10 0 0 0 0]
[21] - Andaluz_N[2370] [10 10 100 60 10 0]
[22] - Skytalos(Anct)[2552] [43 239 0 0 0 0]
[23] - Refinação_Abençoada[3338] [43 9 0 0 0 0]
[24] - Refinação_Abençoada[3338] [43 9 0 0 0 0]
[25] - Refinação_Abençoada[3338] [43 9 0 0 0 0]
[26] - Refinação_Abençoada[3338] [43 9 0 0 0 0]
[27] - Refinação_Abençoada[3338] [43 9 0 0 0 0]
[28] - Refinação_Abençoada[3338] [43 9 0 0 0 0]
[29] - Refinação_Abençoada[3338] [43 9 0 0 0 0]
[30] - Refinação_Abençoada[3338] [43 9 0 0 0 0]
[31] - Refinação_Abençoada[3338] [43 9 0 0 0 0]
[32] - Refinação_Abençoada[3338] [43 9 0 0 0 0]
[33] - Refinação_Abençoada[3338] [43 9 0 0 0 0]
[34] - Refinação_Abençoada[3338] [43 9 0 0 0 0]
[35] - Poeira_de_Lactolerium[413] [61 10 0 0 0 0]
[37] - Refinação_Abençoada[3338] [43 9 0 0 0 0]
[38] - Refinação_Abençoada[3338] [43 9 0 0 0 0]
[39] - Refinação_Abençoada[3338] [43 9 0 0 0 0]
[40] - Arco[826] [43 9 0 0 0 0]
[41] - Neorion(Anct)[2862] [43 250 0 0 0 0]
[42] - Chapéu(M)[1342] [43 0 59 0 59 0]
[43] - Gema_de_Garnet[3389] [0 0 0 0 0 0]
[44] - Skytalos(Anct)[2551] [43 241 0 0 0 0]
[45] - Armadura(A)[1211] [124 9 3 30 60 10]
[46] - Gema_de_Garnet[3389] [0 0 0 0 0 0]
[47] - Cythera_Arcana[3507] [0 0 0 0 0 0]
[48] - Cythera_Mística[3502] [0 0 0 0 0 0]
[49] - Gema_de_Esmeralda[3387] [0 0 0 0 0 0]
[50] - Poeira_de_Lactolerium[413] [0 0 0 0 202 20]
[51] - Poeira_de_Lactolerium[413] [61 239 0 0 0 0]
[53] - Cruz_Sagrada[2143] [0 0 0 0 0 0]
[54] - Gema_de_Garnet[3389] [0 0 0 0 0 0]
[55] - Botas(A)[1220] [124 9 73 30 60 10]
[56] - Gema_de_Garnet[3389] [0 0 0 0 0 0]
[57] - Ração_de_Tigre_de_Fogo[2427] [96 1 61 119 0 0]
[58] - Frango_Assado[3314] [61 8 0 0 0 0]
[59] - Uraz[5111] [0 0 0 0 0 0]
[60] - Bolsa_do_Andarilho[3467] [106 21 110 2 109 121]
[61] - Bolsa_do_Andarilho[3467] [106 21 110 2 109 121]
[63] - Marca_do_Assassino[547] [150 0 0 0 77 0]

[USUÁRIOS LOGADOS]
[ADMIN5]	USER_PLAY	[AeroDynamik] (level: 399 ev: -1)	

15:25:13 : [Shaaari] - Personagem Shaaari enviado ao mundo 2087x 2094y - Canal 2 - Cash da conta: 959. PowerLevel: 8979
15:25:13 : [Shaaari] - Gold atual: 0. Classe: 3 Evolução: 2. Experiência: 4000000000. Nível: 199. Info: 103079215600. GuildID: 0. CP: 75. Pontos de Contribuição: 0. Limite: 0
15:25:13 : [Shaaari] - Logou no personagem Shaaari com poção divina ativo. Validade: 20/2/2021 14:13:4
15:25:13 : [Shaaari] - Logou no personagem Shaaari com frango ativo. Tempo: 1725
15:25:13 : [Shaaari] - [Mensagem do servidor]> A guild [Teste123] derrotou Kefra
15:25:13 : [Shaaari] - Enviado informações do personagem
15:25:14 : [Shaaari] - Comando "/day "
15:25:14 : [Shaaari] - [Mensagem do servidor]> !#11 2
15:25:24 : [Shaaari] - O usuï¿½rio nï¿½o enviou o pacote de integridade de macaddress
15:25:27 : [Shaaari] - Teleportado para a posição 2591 2098
15:25:27 : [Shaaari] - Solicitado teleporte na posição 2141x 2070y e teleportado para 2591x 2098y
15:25:48 : [Shaaari] - Teleportado para a posição 146 3775
15:25:48 : [Shaaari] - Solicitado teleporte na posição 2670x 2156y e teleportado para 146x 3775y
15:26:02 : [Shaaari] - Moveu item Dardo [885] [0 0 0 0 0 0] do tipo EQUIPAMENTO do slot 6 para tipo INVENTÁRIO slot 36
15:26:09 : [Shaaari] - Moveu item Dardo [885] [0 0 0 0 0 0] do tipo INVENTÁRIO do slot 36 para tipo EQUIPAMENTO slot 6
15:26:10 : [Shaaari] - Moveu item Andaluz_N [2370] [10 10 100 60 10 0] do tipo INVENTÁRIO do slot 21 para tipo EQUIPAMENTO slot 14
15:26:12 : [Shaaari] - Moveu item Tigre_de_Fogo [2379] [24 121 120 120 0 0] do tipo INVENTÁRIO do slot 21 para tipo EQUIPAMENTO slot 14
15:27:31 : [Shaaari] - O login admin5 tentou logar na conta com o mesmo mac.
15:27:35 : [Shaaari] - Removido o Hp do mob Caveira. HP removido: 10961. HP Atual: 0
15:27:35 : [Shaaari] - Matou o mob Caveira. GenerID: 1934
15:27:40 : [Shaaari] - Removido o Hp do mob Caveira. HP removido: 7667. HP Atual: 0
15:27:40 : [Shaaari] - Matou o mob Caveira. GenerID: 1934
15:27:41 : [Shaaari] - Removido o Hp do mob Urso Zumbi. HP removido: 11972. HP Atual: 0
15:27:41 : [Shaaari] - Matou o mob Urso Zumbi. GenerID: 1937
15:27:42 : [Shaaari] - Removido o Hp do mob Caveira. HP removido: 11122. HP Atual: 0
15:27:42 : [Shaaari] - Matou o mob Caveira. GenerID: 1931
15:27:49 : [Shaaari] - Removido o Hp do mob Caveira. HP removido: 11233. HP Atual: 0
15:27:49 : [Shaaari] - Matou o mob Caveira. GenerID: 1934
15:28:01 : [Shaaari] - Removido o Hp do mob Caveira. HP removido: 12093. HP Atual: 0
15:28:01 : [Shaaari] - Matou o mob Caveira. GenerID: 1934
15:28:02 : [Shaaari] - Moveu item Andaluz_N [2370] [10 10 100 60 10 0] do tipo INVENTÁRIO do slot 21 para tipo EQUIPAMENTO slot 14
15:28:03 : [Shaaari] - Moveu item Tigre_de_Fogo [2379] [24 121 120 120 0 0] do tipo INVENTÁRIO do slot 21 para tipo EQUIPAMENTO slot 14
15:28:07 : [Shaaari] - Removido o Hp do mob Caveira. HP removido: 11415. HP Atual: 0
15:28:07 : [Shaaari] - Matou o mob Caveira. GenerID: 1931
15:28:13 : [Shaaari] - Removido o Hp do mob Caveira. HP removido: 10598. HP Atual: 0
15:28:13 : [Shaaari] - Matou o mob Caveira. GenerID: 1934
15:28:14 : [Shaaari] - Removido o Hp do mob Urso Zumbi. HP removido: 7823. HP Atual: 0
15:28:14 : [Shaaari] - Matou o mob Urso Zumbi. GenerID: 1937
15:28:25 : [Shaaari] - Removido o Hp do mob Caveira. HP removido: 7726. HP Atual: 0
15:28:25 : [Shaaari] - Matou o mob Caveira. GenerID: 1934
15:28:49 : [Shaaari] - Removido o Hp do mob Caveira. HP removido: 10598. HP Atual: 0
15:28:49 : [Shaaari] - Matou o mob Caveira. GenerID: 1934
15:29:25 : [Shaaari] - Removido o Hp do mob Caveira. HP removido: 7488. HP Atual: 0
15:29:25 : [Shaaari] - Matou o mob Caveira. GenerID: 1934
15:29:33 : [Shaaari] - Removido o Hp do mob Caveira. HP removido: 11220. HP Atual: 0
15:29:33 : [Shaaari] - Matou o mob Caveira. GenerID: 1931
15:29:36 : [Shaaari] - Removido o Hp do mob Caveira. HP removido: 12093. HP Atual: 0
15:29:36 : [Shaaari] - Matou o mob Caveira. GenerID: 1934
15:29:45 : [Shaaari] - Removido o Hp do mob Urso Zumbi. HP removido: 10576. HP Atual: 0
15:29:45 : [Shaaari] - Matou o mob Urso Zumbi. GenerID: 1937
15:30:32 : [Shaaari] - ADMIN4 Recebeu lParam (WndProc) como 32. Erro possível: 10053. Desconectando o usuário.
15:30:32 : [Shaaari] - 5 Personagem foi desconectado. Permaneceu 00:05:50 minutos online
22:48:20 : =========================== NOVA SESSÃO ==========================
Tentativa de logar na conta (ADMIN4) - IP: 84.123.38.2 Mac: (B4:B1:20:6F:AD:44). ClientId: 3
22:48:20 : Conta ADMIN3 logado na conta
Status da conta: SELEÇÃO DE PERSONAGEM

22:48:20 : Usuário logou no jogo com clientId 3. - Servidor 2. Gold do banco: 0
22:48:20 : [INFORMAÇÕES DO BANCO]
Gold: 0
[  0] - Armadura[1221] [43 7 71 70 2 30]

22:48:21 : [INFORMAÇÕES DA CONTA]
Personagem na seleção de personagem. Sem informações no momento
Tempo online até o momento: 00 dias e 00:00:01 horas

[USUÁRIOS LOGADOS]
Nenhuma outra conta logada 

22:48:23 : Solicitou ir ao mundo...
22:48:23 : Recebido pedido para entrar no jogo
22:48:23 : Recebido informação do personagem completa.
22:48:23 : [Sharii] - [INFORMAÇÕES DA CONTA]
Personagem online: Sharii
Gold atual: 888500148
Level atual: 399
Experiência atual: 9204720084
Evolução atual: Unknown
Tempo online até o momento: 00 dias e 00:00:03 horas
Posição atual: 2092x 2103y

Pontos NT: 0
Entradas Hall: 0
Info: 0
Soul: 0
Divina: 0/0/0 0:0:0
Sephira: 0/0/0 0:0:0
Saude: 0/0/0 0:0:0
Escritura: 0/0/0 0:0:0
Revigorante: 0/0/0 0:0:0
LastGuildKickout: 0/0/0 0:0:0
[EQUIPAMENTOS]
[00] - Rogue[31] [43 0 31 0 1 1]
[01] - Elmo[1660] [43 253 0 0 0 0]
[02] - Armadura[1661] [120 253 0 0 0 0]
[03] - Calça[1662] [43 253 0 0 0 0]
[04] - Luvas[1663] [43 253 0 0 0 0]
[05] - Botas[1664] [43 253 0 0 0 0]
[06] - Arco_Divino(Anct)[2550] [43 253 0 0 0 0]

[INVENTÁRIO]
[00] - Poeira_de_Lactolerium[413] [61 112 0 0 0 0]
[01] - Braçadeira(A)[1652] [43 9 0 0 0 0]
[02] - Poeira_de_Lactolerium[413] [61 1 0 0 0 0]
[03] - Poeira_de_Lactolerium[413] [61 1 0 0 0 0]
[04] - Poeira_de_Lactolerium[413] [61 1 0 0 0 0]
[05] - Poeira_de_Lactolerium[413] [61 1 0 0 0 0]
[06] - Peitoral(A)[1646] [43 9 0 0 0 0]
[07] - Poeira_de_Lactolerium[413] [61 1 0 0 0 0]
[08] - Poeira_de_Lactolerium[413] [61 1 0 0 0 0]
[09] - Poeira_de_Lactolerium[413] [61 1 0 0 0 0]
[10] - Calça(A)[1649] [43 9 0 0 0 0]
[11] - Botas(A)[1655] [43 9 0 0 0 0]
[13] - Poeira_de_Lactolerium[413] [61 1 0 0 0 0]
[14] - Poeira_de_Lactolerium[413] [61 1 0 0 0 0]
[15] - Chapéu(A)[1643] [43 9 26 12 0 0]
[16] - Chapéu(A)[1643] [43 9 4 50 0 0]
[17] - Chapéu(A)[1643] [43 9 0 0 0 0]
[18] - Chapéu(A)[1643] [43 9 3 20 0 0]
[19] - Arco_do_Guardião_(Anct)[3621] [43 250 0 0 0 0]
[20] - Arco_do_Guardião_(Anct)[3624] [43 253 0 0 0 0]
[21] - Pegasus[2382] [120 120 120 120 0 0]
[22] - Esfera_da_Sorte(A)[4130] [0 0 0 0 0 0]
[23] - Chapéu(A)[1643] [43 9 60 8 0 0]
[24] - Baú_de_Experiência[4140] [61 10 0 0 0 0]
[25] - Pedido_de_Caça(Kult)[3435] [61 9 0 0 0 0]
[26] - Safira[697] [0 0 0 0 0 0]
[27] - Safira[697] [0 0 0 0 0 0]
[28] - Safira[697] [0 0 0 0 0 0]
[63] - Marca_do_Assassino[547] [87 0 0 0 77 0]

[USUÁRIOS LOGADOS]
Nenhuma outra conta logada 

22:48:23 : [Sharii] - Personagem Sharii enviado ao mundo 2092x 2103y - Canal 2 - Cash da conta: 959. PowerLevel: 4531
22:48:23 : [Sharii] - Gold atual: 888500148. Classe: 3 Evolução: 0. Experiência: 9204720084. Nível: 399. Info: 0. GuildID: 0. CP: 12. Pontos de Contribuição: 0. Limite: 0
22:48:23 : [Sharii] - Logou no personagem Sharii com poção divina ativo. Validade: 20/2/2021 14:13:4
22:48:23 : [Sharii] - [Mensagem do servidor]> A guild [Teste123] derrotou Kefra
22:48:23 : [Sharii] - Enviado informações do personagem
22:48:25 : [Sharii] - Comando "/day "
22:48:25 : [Sharii] - [Mensagem do servidor]> !#11 2
22:48:33 : [Sharii] - Comando "/gm +move azran"
22:48:33 : [Sharii] - Teleportado para a posição 2482 1709
22:48:39 : [Sharii] - O usuï¿½rio nï¿½o enviou o pacote de integridade de macaddress
22:48:39 : [Sharii] - Comando "/gm +move erion"
22:48:39 : [Sharii] - Teleportado para a posição 2460 2009
22:49:28 : [Sharii] - O login admin3 tentou logar na conta com o mesmo mac.
22:53:04 : [Sharii] - ADMIN4 Recebeu lParam (WndProc) como 32. Erro possível: 10053. Desconectando o usuário.
22:53:04 : [Sharii] - 3 Personagem foi desconectado. Permaneceu 00:04:41 minutos online