
00:00:00 : [Wozzzzzzzzz] - Resetado a contagem de entradas ï¿½gua! Day: 42-43. Total: 2
00:00:00 : [Wozzzzzzzzz] - Resetado contagem de pontos de contribuiï¿½ï¿½o. Day: 43-0. Total de pontos: 0. Limite: 0
00:00:00 : [Wozzzzzzzzz] - Usuï¿½rio online desde o dia anterior
00:00:00 : [Wozzzzzzzzz] - IP: 84.123.38.2 Mac: (0B:A7:7A:4E:00:4C)
00:00:00 : [Wozzzzzzzzz] - [USUÁRIOS LOGADOS]
Nenhuma outra conta logada 

00:00:00 : [Wozzzzzzzzz] - [Mensagem do servidor]: Apostas iniciadas.
00:00:04 : [Wozzzzzzzzz] - [Mensagem do servidor]: Guerra entre Reinos iniciada. Acesse o teleporte de Noatun!
00:10:31 : =========================== NOVA SESSÃO ==========================
Tentativa de logar na conta (ADMIN5) - IP: 84.123.38.2 Mac: (0B:A7:7A:4E:00:4C). ClientId: 1
00:10:31 : Usuário logou no jogo com clientId 1. - Servidor 1. Gold do banco: 0
00:10:31 : [INFORMAÇÕES DO BANCO]
Gold: 0
[  0] - Arco_Guardião[3556] [43 9 2 36 0 0]
[  1] - Lobo_Polar[3980] [96 3 0 0 0 0]
[  2] - Âmago_de_Javali[2391] [0 0 0 0 0 0]
[  5] - Barra_de_Ouro_(10Bi)[4012] [0 0 0 0 0 0]
[  9] - Dragão_Vermelho[2380] [10 10 120 30 0 0]
[ 10] - Kit_de_Cura_(20_M.)[682] [61 20 0 0 0 0]
[ 14] - Pegasus[2382] [10 10 120 30 0 0]
[ 15] - Baú_de_Experiência[4140] [61 4 0 0 0 0]
[ 19] - Moeda_de_Bronze(50Mi)[4029] [61 101 0 0 0 0]
[ 20] - Frango_Assado[3314] [61 9 0 0 0 0]
[ 25] - Ração_de_Aranha[2420] [61 120 0 0 0 0]
[ 80] - Andaluz_N[2370] [10 10 100 60 10 0]
[ 90] - Ração_de_Aranha[2420] [61 120 0 0 0 0]
[ 95] - Resto_de_Oriharucon[419] [61 10 0 0 0 0]
[100] - Resto_de_Lactolerium[420] [59 46 59 14 59 61]
[105] - Poeira_de_Lactolerium[413] [61 214 0 0 0 0]
[200] - Caixa_do_Andarilho[3479] [106 21 110 2 109 121]
[201] - Caixa_do_Andarilho[3479] [106 21 110 2 109 121]

00:10:31 : [INFORMAÇÕES DA CONTA]
Personagem na seleção de personagem. Sem informações no momento
Tempo online até o momento: 00 dias e 00:00:01 horas

[USUÁRIOS LOGADOS]
Nenhuma outra conta logada 

00:10:36 : Enviou senha numérica correta. 
00:10:38 : Solicitou ir ao mundo...
00:10:38 : Recebido pedido para entrar no jogo
00:10:38 : Recebido informação do personagem completa.
00:10:38 : [AeroDynamik] - [INFORMAÇÕES DA CONTA]
Personagem online: AeroDynamik
Gold atual: 493534988
Level atual: 399
Experiência atual: 4848018429
Evolução atual: Unknown
Tempo online até o momento: 00 dias e 00:00:07 horas
Posição atual: 3665x 3135y

Pontos NT: 0
Entradas Hall: 0
Info: 0
Soul: 0
Divina: 0/0/0 0:0:0
Sephira: 0/0/0 0:0:0
Saude: 0/0/0 0:0:0
Escritura: 0/0/0 0:0:0
Revigorante: 0/0/0 0:0:0
LastGuildKickout: 0/0/0 0:0:0
[EQUIPAMENTOS]
[00] - Rogue[31] [43 0 31 0 1 1]
[01] - Chapéu(A)[1643] [43 237 3 25 26 18]
[02] - Peitoral(A)[1646] [43 237 2 30 71 70]
[03] - Calça(A)[1649] [43 237 2 30 71 70]
[04] - Braçadeira(A)[1652] [43 237 54 18 72 30]
[05] - Botas(A)[1655] [43 237 73 30 74 18]
[06] - Arco[826] [43 249 2 255 2 255]
[08] - Brinco_de_Titã[592] [43 9 0 0 0 0]
[09] - Amuleto_de_Prata[551] [43 9 2 99 0 0]
[10] - Pedra_Espiritual[633] [43 9 0 0 0 0]
[11] - Ankh_da_Glória[663] [43 9 0 0 0 0]
[12] - Conjunto_Esqueleto[4153] [96 21 2 21 0 32]
[14] - Grifo_Sangrento[2386] [163 78 100 60 10 0]
[15] - Manto_do_Guerreiro[543] [0 0 0 0 0 0]

[INVENTÁRIO]
[00] - Fada_Vermelha(3dias)[3902] [106 2 107 22 108 59]
[01] - Barra_de_Prata_(1Bi)[4011] [61 120 0 0 0 0]
[02] - Fenrir[2376] [122 74 100 60 10 0]
[03] - Trombeta_Mágica[3330] [61 119 0 0 0 0]
[04] - Baú_de_Experiência[4140] [61 235 0 0 0 0]
[05] - Baú_de_Caça[4139] [61 234 0 0 0 0]
[06] - Frango_Assado[3314] [61 235 0 0 0 0]
[07] - Pedido_de_Caça(Kult)[3435] [61 9 0 0 0 0]
[08] - Ração_de_Fenrir[2436] [61 2 0 0 0 0]
[09] - Pesadelo_(N/Grupo)[3324] [61 198 0 0 0 0]
[10] - Moeda_de_Bronze(50Mi)[4029] [61 107 0 0 0 0]
[11] - Bracelete_de_Gaia[512] [0 0 0 0 0 0]
[12] - Poeira_de_Lactolerium[413] [61 25 0 0 0 0]
[13] - Poeira_de_Oriharucon[412] [0 0 0 0 0 0]
[14] - Luvas(M)[1501] [43 0 72 10 60 2]
[15] - Braçadeira(M)[1651] [43 0 72 15 60 4]
[16] - Jóia_da_Absorção[3204] [61 4 0 0 0 0]
[17] - Jóia_da_Proteção[3205] [61 4 0 0 0 0]
[18] - Jóia_do_Poder[3206] [61 4 0 0 0 0]
[19] - Jóia_da_Precisão[3208] [61 6 0 0 0 0]
[20] - Braçadeira(M)[1651] [4 47 72 10 54 9]
[21] - Braçadeira(M)[1651] [8 14 72 10 54 9]
[22] - Luvas(M)[1501] [43 1 72 25 54 9]
[23] - Poeira_de_Oriharucon[412] [0 0 0 0 0 0]
[24] - Pedido_de_Caça(Kefra)[3436] [61 9 0 0 0 0]
[60] - Bolsa_do_Andarilho[3467] [106 21 110 2 109 121]
[61] - Bolsa_do_Andarilho[3467] [106 21 110 2 109 121]
[63] - Marca_do_Assassino[547] [150 0 0 0 77 0]

[USUÁRIOS LOGADOS]
Nenhuma outra conta logada 

00:10:38 : [AeroDynamik] - Personagem AeroDynamik enviado ao mundo 3665x 3135y - Canal 1 - Cash da conta: 15578. PowerLevel: 4547
00:10:38 : [AeroDynamik] - Gold atual: 493534988. Classe: 3 Evolução: 0. Experiência: 4848018429. Nível: 399. Info: 0. GuildID: 0. CP: 75. Pontos de Contribuição: 0. Limite: 0
00:10:38 : [AeroDynamik] - Logou no personagem AeroDynamik com poção divina ativo. Validade: 21/2/2021 9:16:26
00:10:38 : [AeroDynamik] - Logou no personagem AeroDynamik com frango ativo. Tempo: 521
00:10:38 : [AeroDynamik] - Logou no personagem AeroDynamik com baú de experiência ativo. Tempo: 1687
00:10:38 : [AeroDynamik] - [Mensagem do servidor]> A guild [Teste123] derrotou Kefra
00:10:38 : [AeroDynamik] - Enviado informações do personagem
00:10:39 : [AeroDynamik] - Comando "/day "
00:10:39 : [AeroDynamik] - [Mensagem do servidor]> !#11 2
00:10:43 : [AeroDynamik] - O usuï¿½rio nï¿½o enviou o pacote de integridade de macaddress
00:10:50 : [AeroDynamik] - Personagem deu personagem
00:10:56 : Solicitou ir ao mundo...
00:10:56 : Recebido pedido para entrar no jogo
00:10:56 : Recebido informação do personagem completa.
00:10:57 : [Wozzzzzzzzz] - [INFORMAÇÕES DA CONTA]
Personagem online: Wozzzzzzzzz
Gold atual: 293253123
Level atual: 1010
Experiência atual: 496564540
Evolução atual: Unknown
Tempo online até o momento: 00 dias e 00:00:25 horas
Posição atual: 2094x 2093y

Pontos NT: 0
Entradas Hall: 0
Info: 0
Soul: 0
Divina: 0/0/0 0:0:0
Sephira: 0/0/0 0:0:0
Saude: 0/0/0 0:0:0
Escritura: 0/0/0 0:0:0
Revigorante: 0/0/0 0:0:0
LastGuildKickout: 0/0/0 0:0:0
[EQUIPAMENTOS]
[00] - Warrior[1] [43 0 1 0 1 1]
[01] - Elmo(A)[1208] [43 9 3 25 26 18]
[02] - Armadura(A)[1211] [43 9 2 30 71 70]
[03] - Calça(A)[1214] [43 9 2 30 71 70]
[04] - Luvas(A)[1217] [43 9 54 18 72 30]
[05] - Botas(A)[1220] [43 9 73 30 74 18]
[06] - Arco[826] [0 0 0 0 0 0]
[16] - Asa_Angelical[3102] [0 0 0 0 0 0]

[INVENTÁRIO]
[02] - Trombeta_Mágica[3330] [61 3 0 0 0 0]
[03] - Ovo_de_Javali[2301] [78 2 0 0 0 0]
[15] - Poeira_de_Lactolerium[413] [0 0 0 0 0 0]
[16] - Pedido_de_Caça(Kefra)[3436] [61 4 0 0 0 0]
[18] - Pergaminho_da_Água(M)LV1[777] [0 0 0 0 0 0]
[19] - Pergaminho_da_Água(A)LV1[3182] [0 0 0 0 0 0]
[63] - Marca_do_Assassino[547] [81 0 0 0 77 0]

[USUÁRIOS LOGADOS]
Nenhuma outra conta logada 

00:10:57 : [Wozzzzzzzzz] - Personagem Wozzzzzzzzz enviado ao mundo 2094x 2093y - Canal 1 - Cash da conta: 15578. PowerLevel: 1409
00:10:57 : [Wozzzzzzzzz] - Gold atual: 293253123. Classe: 0 Evolução: 0. Experiência: 496564540. Nível: 1010. Info: 0. GuildID: 0. CP: 6. Pontos de Contribuição: 0. Limite: 0
00:10:57 : [Wozzzzzzzzz] - Logou no personagem Wozzzzzzzzz com poção divina ativo. Validade: 21/2/2021 9:16:26
00:10:57 : [Wozzzzzzzzz] - [Mensagem do servidor]> A guild [Teste123] derrotou Kefra
00:10:57 : [Wozzzzzzzzz] - Enviado informações do personagem
00:10:57 : [Wozzzzzzzzz] - Comando "/day "
00:10:57 : [Wozzzzzzzzz] - [Mensagem do servidor]> !#11 2
00:11:07 : [Wozzzzzzzzz] - O usuï¿½rio nï¿½o enviou o pacote de integridade de macaddress
00:14:00 : [Wozzzzzzzzz] - [Mensagem do servidor]: Tauron nasceu no Pvp de Armia
00:19:45 : =========================== NOVA SESSÃO ==========================
Tentativa de logar na conta (ADMIN5) - IP: 84.123.38.2 Mac: (0B:A7:7A:4E:00:4C). ClientId: 1
00:19:45 : Usuário logou no jogo com clientId 1. - Servidor 1. Gold do banco: 0
00:19:45 : [INFORMAÇÕES DO BANCO]
Gold: 0
[  0] - Arco_Guardião[3556] [43 9 2 36 0 0]
[  1] - Lobo_Polar[3980] [96 3 0 0 0 0]
[  2] - Âmago_de_Javali[2391] [0 0 0 0 0 0]
[  5] - Barra_de_Ouro_(10Bi)[4012] [0 0 0 0 0 0]
[  9] - Dragão_Vermelho[2380] [10 10 120 30 0 0]
[ 10] - Kit_de_Cura_(20_M.)[682] [61 20 0 0 0 0]
[ 14] - Pegasus[2382] [10 10 120 30 0 0]
[ 15] - Baú_de_Experiência[4140] [61 4 0 0 0 0]
[ 19] - Moeda_de_Bronze(50Mi)[4029] [61 101 0 0 0 0]
[ 20] - Frango_Assado[3314] [61 9 0 0 0 0]
[ 25] - Ração_de_Aranha[2420] [61 120 0 0 0 0]
[ 80] - Andaluz_N[2370] [10 10 100 60 10 0]
[ 90] - Ração_de_Aranha[2420] [61 120 0 0 0 0]
[ 95] - Resto_de_Oriharucon[419] [61 10 0 0 0 0]
[100] - Resto_de_Lactolerium[420] [59 46 59 14 59 61]
[105] - Poeira_de_Lactolerium[413] [61 214 0 0 0 0]
[200] - Caixa_do_Andarilho[3479] [106 21 110 2 109 121]
[201] - Caixa_do_Andarilho[3479] [106 21 110 2 109 121]

00:19:45 : [INFORMAÇÕES DA CONTA]
Personagem na seleção de personagem. Sem informações no momento
Tempo online até o momento: 00 dias e 00:00:01 horas

[USUÁRIOS LOGADOS]
Nenhuma outra conta logada 

00:19:47 : Errou senha numérica: 1.
00:19:51 : Enviou senha numérica correta. 
00:27:45 : =========================== NOVA SESSÃO ==========================
Tentativa de logar na conta (ADMIN5) - IP: 84.123.38.2 Mac: (0B:A7:7A:4E:00:4C). ClientId: 4
00:27:45 : Usuário logou no jogo com clientId 4. - Servidor 1. Gold do banco: 0
00:27:45 : [INFORMAÇÕES DO BANCO]
Gold: 0
[  0] - Arco_Guardião[3556] [43 9 2 36 0 0]
[  1] - Lobo_Polar[3980] [96 3 0 0 0 0]
[  2] - Âmago_de_Javali[2391] [0 0 0 0 0 0]
[  5] - Barra_de_Ouro_(10Bi)[4012] [0 0 0 0 0 0]
[  9] - Dragão_Vermelho[2380] [10 10 120 30 0 0]
[ 10] - Kit_de_Cura_(20_M.)[682] [61 20 0 0 0 0]
[ 14] - Pegasus[2382] [10 10 120 30 0 0]
[ 15] - Baú_de_Experiência[4140] [61 4 0 0 0 0]
[ 19] - Moeda_de_Bronze(50Mi)[4029] [61 101 0 0 0 0]
[ 20] - Frango_Assado[3314] [61 9 0 0 0 0]
[ 25] - Ração_de_Aranha[2420] [61 120 0 0 0 0]
[ 80] - Andaluz_N[2370] [10 10 100 60 10 0]
[ 90] - Ração_de_Aranha[2420] [61 120 0 0 0 0]
[ 95] - Resto_de_Oriharucon[419] [61 10 0 0 0 0]
[100] - Resto_de_Lactolerium[420] [59 46 59 14 59 61]
[105] - Poeira_de_Lactolerium[413] [61 214 0 0 0 0]
[200] - Caixa_do_Andarilho[3479] [106 21 110 2 109 121]
[201] - Caixa_do_Andarilho[3479] [106 21 110 2 109 121]

00:27:45 : [INFORMAÇÕES DA CONTA]
Personagem na seleção de personagem. Sem informações no momento
Tempo online até o momento: 00 dias e 00:00:01 horas

[USUÁRIOS LOGADOS]
Nenhuma outra conta logada 

00:27:51 : Enviou senha numérica correta. 
00:27:56 : Solicitou ir ao mundo...
00:27:56 : Recebido pedido para entrar no jogo
00:27:56 : Recebido informação do personagem completa.
00:27:56 : [CapuDiFusca] - [INFORMAÇÕES DA CONTA]
Personagem online: CapuDiFusca
Gold atual: 0
Level atual: 34
Experiência atual: 180770
Evolução atual: Unknown
Tempo online até o momento: 00 dias e 00:00:12 horas
Posição atual: 2112x 2042y

Pontos NT: 0
Entradas Hall: 0
Info: 0
Soul: 0
Divina: 0/0/0 0:0:0
Sephira: 0/0/0 0:0:0
Saude: 0/0/0 0:0:0
Escritura: 0/0/0 0:0:0
Revigorante: 0/0/0 0:0:0
LastGuildKickout: 0/0/0 0:0:0
[EQUIPAMENTOS]
[00] - Mage[11] [43 0 11 0 1 1]
[01] - Robe(N)[1254] [43 8 0 0 0 0]
[02] - Robe(N)[1266] [43 8 0 0 0 0]
[03] - Saia(N)[1278] [43 8 0 0 0 0]
[04] - Luvas(N)[1290] [43 8 0 0 0 0]
[05] - Botas(N)[1302] [43 8 0 0 0 0]
[06] - Arco[816] [43 8 0 0 0 0]
[14] - Aranha[2360] [232 26 80 20 0 0]

[INVENTÁRIO]
[00] - Poção_de_Cura[400] [0 0 0 0 0 0]
[01] - Jaqueta(A)[1556] [43 1 71 50 59 0]
[63] - Marca_do_Assassino[547] [150 0 0 0 77 0]

[USUÁRIOS LOGADOS]
Nenhuma outra conta logada 

00:27:56 : [CapuDiFusca] - Personagem CapuDiFusca enviado ao mundo 2112x 2042y - Canal 1 - Cash da conta: 15578. PowerLevel: 58
00:27:56 : [CapuDiFusca] - Gold atual: 0. Classe: 1 Evolução: 0. Experiência: 180770. Nível: 34. Info: 0. GuildID: 0. CP: 75. Pontos de Contribuição: 0. Limite: 0
00:27:56 : [CapuDiFusca] - Logou no personagem CapuDiFusca com poção divina ativo. Validade: 21/2/2021 9:16:26
00:27:56 : [CapuDiFusca] - Logou no personagem CapuDiFusca com baú de experiência ativo. Tempo: 700
00:27:56 : [CapuDiFusca] - Logou no personagem CapuDiFusca com frango ativo. Tempo: 1600
00:27:56 : [CapuDiFusca] - [Mensagem do servidor]> A guild [Teste123] derrotou Kefra
00:27:56 : [CapuDiFusca] - Enviado informações do personagem
00:27:57 : [CapuDiFusca] - Comando "/day "
00:27:57 : [CapuDiFusca] - [Mensagem do servidor]> !#11 2
00:28:11 : [CapuDiFusca] - O usuï¿½rio nï¿½o enviou o pacote de integridade de macaddress
00:51:03 : =========================== NOVA SESSÃO ==========================
Tentativa de logar na conta (ADMIN5) - IP: 84.123.38.2 Mac: (0B:A7:7A:4E:00:4C). ClientId: 6
00:51:03 : Usuário logou no jogo com clientId 6. - Servidor 1. Gold do banco: 0
00:51:03 : [INFORMAÇÕES DO BANCO]
Gold: 0
[  0] - Arco_Guardião[3556] [43 9 2 36 0 0]
[  1] - Lobo_Polar[3980] [96 3 0 0 0 0]
[  2] - Âmago_de_Javali[2391] [0 0 0 0 0 0]
[  5] - Barra_de_Ouro_(10Bi)[4012] [0 0 0 0 0 0]
[  9] - Dragão_Vermelho[2380] [10 10 120 30 0 0]
[ 10] - Kit_de_Cura_(20_M.)[682] [61 20 0 0 0 0]
[ 14] - Pegasus[2382] [10 10 120 30 0 0]
[ 15] - Baú_de_Experiência[4140] [61 4 0 0 0 0]
[ 19] - Moeda_de_Bronze(50Mi)[4029] [61 101 0 0 0 0]
[ 20] - Frango_Assado[3314] [61 9 0 0 0 0]
[ 25] - Ração_de_Aranha[2420] [61 120 0 0 0 0]
[ 80] - Andaluz_N[2370] [10 10 100 60 10 0]
[ 90] - Ração_de_Aranha[2420] [61 120 0 0 0 0]
[ 95] - Resto_de_Oriharucon[419] [61 10 0 0 0 0]
[100] - Resto_de_Lactolerium[420] [59 46 59 14 59 61]
[105] - Poeira_de_Lactolerium[413] [61 214 0 0 0 0]
[200] - Caixa_do_Andarilho[3479] [106 21 110 2 109 121]
[201] - Caixa_do_Andarilho[3479] [106 21 110 2 109 121]

00:51:03 : [INFORMAÇÕES DA CONTA]
Personagem na seleção de personagem. Sem informações no momento
Tempo online até o momento: 00 dias e 00:00:01 horas

[USUÁRIOS LOGADOS]
Nenhuma outra conta logada 

00:51:08 : Enviou senha numérica correta. 
00:51:10 : Solicitou ir ao mundo...
00:51:10 : Recebido pedido para entrar no jogo
00:51:10 : Recebido informação do personagem completa.
00:51:10 : [Wozzzzzzzzz] - [INFORMAÇÕES DA CONTA]
Personagem online: Wozzzzzzzzz
Gold atual: 293253123
Level atual: 1010
Experiência atual: 496564540
Evolução atual: Unknown
Tempo online até o momento: 00 dias e 00:00:07 horas
Posição atual: 2094x 2094y

Pontos NT: 0
Entradas Hall: 0
Info: 0
Soul: 0
Divina: 0/0/0 0:0:0
Sephira: 0/0/0 0:0:0
Saude: 0/0/0 0:0:0
Escritura: 0/0/0 0:0:0
Revigorante: 0/0/0 0:0:0
LastGuildKickout: 0/0/0 0:0:0
[EQUIPAMENTOS]
[00] - Warrior[1] [43 0 1 0 1 1]
[01] - Elmo(A)[1208] [43 9 3 25 26 18]
[02] - Armadura(A)[1211] [43 9 2 30 71 70]
[03] - Calça(A)[1214] [43 9 2 30 71 70]
[04] - Luvas(A)[1217] [43 9 54 18 72 30]
[05] - Botas(A)[1220] [43 9 73 30 74 18]
[06] - Arco[826] [0 0 0 0 0 0]
[16] - Asa_Angelical[3102] [0 0 0 0 0 0]

[INVENTÁRIO]
[02] - Trombeta_Mágica[3330] [61 3 0 0 0 0]
[03] - Ovo_de_Javali[2301] [78 2 0 0 0 0]
[15] - Poeira_de_Lactolerium[413] [0 0 0 0 0 0]
[16] - Pedido_de_Caça(Kefra)[3436] [61 4 0 0 0 0]
[18] - Pergaminho_da_Água(M)LV1[777] [0 0 0 0 0 0]
[19] - Pergaminho_da_Água(A)LV1[3182] [0 0 0 0 0 0]
[63] - Marca_do_Assassino[547] [81 0 0 0 77 0]

[USUÁRIOS LOGADOS]
Nenhuma outra conta logada 

00:51:10 : [Wozzzzzzzzz] - Personagem Wozzzzzzzzz enviado ao mundo 2094x 2094y - Canal 1 - Cash da conta: 15578. PowerLevel: 1409
00:51:10 : [Wozzzzzzzzz] - Gold atual: 293253123. Classe: 0 Evolução: 0. Experiência: 496564540. Nível: 1010. Info: 0. GuildID: 0. CP: 6. Pontos de Contribuição: 0. Limite: 0
00:51:10 : [Wozzzzzzzzz] - Logou no personagem Wozzzzzzzzz com poção divina ativo. Validade: 21/2/2021 9:16:26
00:51:10 : [Wozzzzzzzzz] - [Mensagem do servidor]> A guild [Teste123] derrotou Kefra
00:51:10 : [Wozzzzzzzzz] - Enviado informações do personagem
00:51:11 : [Wozzzzzzzzz] - Comando "/day "
00:51:11 : [Wozzzzzzzzz] - [Mensagem do servidor]> !#11 2
00:51:24 : [Wozzzzzzzzz] - O usuï¿½rio nï¿½o enviou o pacote de integridade de macaddress
00:51:43 : [Wozzzzzzzzz] - Clicado no NPC [Guarda Carga]. Face 106. Race: 2. GenerateId: 3255. Posição do usuário: 2107x 2114y. Posição do NPC: 2105x 2117y
00:53:29 : [Wozzzzzzzzz] - Trade com conta OBELISCOZINH
00:53:29 : [Wozzzzzzzzz] - Trade - Enviado 100000000 de gold para o usuário
00:53:29 : [Wozzzzzzzzz] - Trade - Recebido 0 de gold do usuário
00:57:20 : [Wozzzzzzzzz] - [Mensagem do servidor]: Jogador RhadamanthyS obteve sucesso na composição de Lança_do_Triunfo(Anct)
00:57:58 : [Wozzzzzzzzz] - [Mensagem do servidor]: O Rei Harabard está sendo atacado
01:05:00 : [Wozzzzzzzzz] - [Mensagem do servidor]: Jogador RhadamanthyS obteve sucesso na composição de Lança_do_Triunfo(Anct)
01:08:53 : [Wozzzzzzzzz] - [Mensagem do servidor]: Parabéns para I-Zoe-I pela criação do seu Celestial
01:14:00 : [Wozzzzzzzzz] - [Mensagem do servidor]: Tauron nasceu no Pvp de Armia
01:16:40 : [Wozzzzzzzzz] - [Mensagem do servidor]: -Mikau- falhou na composição do item Cajado para Ancient
01:16:46 : [Wozzzzzzzzz] - Personagem deu personagem
01:16:53 : Solicitou ir ao mundo...
01:16:53 : Recebido pedido para entrar no jogo
01:16:53 : Recebido informação do personagem completa.
01:16:53 : [AeroDynamik] - [INFORMAÇÕES DA CONTA]
Personagem online: AeroDynamik
Gold atual: 493534988
Level atual: 399
Experiência atual: 4848018429
Evolução atual: Unknown
Tempo online até o momento: 00 dias e 00:25:31 horas
Posição atual: 3659x 3133y

Pontos NT: 0
Entradas Hall: 0
Info: 0
Soul: 0
Divina: 0/0/0 0:0:0
Sephira: 0/0/0 0:0:0
Saude: 0/0/0 0:0:0
Escritura: 0/0/0 0:0:0
Revigorante: 0/0/0 0:0:0
LastGuildKickout: 0/0/0 0:0:0
[EQUIPAMENTOS]
[00] - Rogue[31] [43 0 31 0 1 1]
[01] - Chapéu(A)[1643] [43 237 3 25 26 18]
[02] - Peitoral(A)[1646] [43 237 2 30 71 70]
[03] - Calça(A)[1649] [43 237 2 30 71 70]
[04] - Braçadeira(A)[1652] [43 237 54 18 72 30]
[05] - Botas(A)[1655] [43 237 73 30 74 18]
[06] - Arco[826] [43 249 2 255 2 255]
[08] - Brinco_de_Titã[592] [43 9 0 0 0 0]
[09] - Amuleto_de_Prata[551] [43 9 2 99 0 0]
[10] - Pedra_Espiritual[633] [43 9 0 0 0 0]
[11] - Ankh_da_Glória[663] [43 9 0 0 0 0]
[12] - Conjunto_Esqueleto[4153] [96 21 2 21 0 32]
[14] - Grifo_Sangrento[2386] [163 78 100 60 10 0]
[15] - Manto_do_Guerreiro[543] [0 0 0 0 0 0]

[INVENTÁRIO]
[00] - Fada_Vermelha(3dias)[3902] [106 2 107 22 108 59]
[01] - Barra_de_Prata_(1Bi)[4011] [61 120 0 0 0 0]
[02] - Fenrir[2376] [122 74 100 60 10 0]
[03] - Trombeta_Mágica[3330] [61 119 0 0 0 0]
[04] - Baú_de_Experiência[4140] [61 235 0 0 0 0]
[05] - Baú_de_Caça[4139] [61 234 0 0 0 0]
[06] - Frango_Assado[3314] [61 235 0 0 0 0]
[07] - Pedido_de_Caça(Kult)[3435] [61 9 0 0 0 0]
[08] - Ração_de_Fenrir[2436] [61 2 0 0 0 0]
[09] - Pesadelo_(N/Grupo)[3324] [61 198 0 0 0 0]
[10] - Moeda_de_Bronze(50Mi)[4029] [61 107 0 0 0 0]
[11] - Bracelete_de_Gaia[512] [0 0 0 0 0 0]
[12] - Poeira_de_Lactolerium[413] [61 25 0 0 0 0]
[13] - Poeira_de_Oriharucon[412] [0 0 0 0 0 0]
[14] - Luvas(M)[1501] [43 0 72 10 60 2]
[15] - Braçadeira(M)[1651] [43 0 72 15 60 4]
[16] - Jóia_da_Absorção[3204] [61 4 0 0 0 0]
[17] - Jóia_da_Proteção[3205] [61 4 0 0 0 0]
[18] - Jóia_do_Poder[3206] [61 4 0 0 0 0]
[19] - Jóia_da_Precisão[3208] [61 6 0 0 0 0]
[20] - Braçadeira(M)[1651] [4 47 72 10 54 9]
[21] - Braçadeira(M)[1651] [8 14 72 10 54 9]
[22] - Luvas(M)[1501] [43 1 72 25 54 9]
[23] - Poeira_de_Oriharucon[412] [0 0 0 0 0 0]
[24] - Pedido_de_Caça(Kefra)[3436] [61 9 0 0 0 0]
[60] - Bolsa_do_Andarilho[3467] [106 21 110 2 109 121]
[61] - Bolsa_do_Andarilho[3467] [106 21 110 2 109 121]
[63] - Marca_do_Assassino[547] [150 0 0 0 77 0]

[USUÁRIOS LOGADOS]
Nenhuma outra conta logada 

01:16:53 : [AeroDynamik] - Personagem AeroDynamik enviado ao mundo 3659x 3133y - Canal 1 - Cash da conta: 15578. PowerLevel: 4547
01:16:53 : [AeroDynamik] - Gold atual: 493534988. Classe: 3 Evolução: 0. Experiência: 4848018429. Nível: 399. Info: 0. GuildID: 0. CP: 75. Pontos de Contribuição: 0. Limite: 0
01:16:53 : [AeroDynamik] - Logou no personagem AeroDynamik com poção divina ativo. Validade: 21/2/2021 9:16:26
01:16:53 : [AeroDynamik] - Logou no personagem AeroDynamik com frango ativo. Tempo: 520
01:16:53 : [AeroDynamik] - Logou no personagem AeroDynamik com baú de experiência ativo. Tempo: 1686
01:16:53 : [AeroDynamik] - [Mensagem do servidor]> A guild [Teste123] derrotou Kefra
01:16:53 : [AeroDynamik] - Enviado informações do personagem
01:16:53 : [AeroDynamik] - Comando "/day "
01:16:53 : [AeroDynamik] - [Mensagem do servidor]> !#11 2
01:17:01 : [AeroDynamik] - O usuï¿½rio nï¿½o enviou o pacote de integridade de macaddress
01:17:06 : [AeroDynamik] - [Mensagem do servidor]: Jogador -Mikau- obteve sucesso na composição de Fúria_Divina(Anct)
01:17:24 : [AeroDynamik] - [Mensagem do servidor]: Jogador DeathSavage obteve sucesso na refinação item +12
01:17:42 : [AeroDynamik] - [Mensagem do servidor]: Jogador DeathSavage obteve sucesso na refinação item +13
01:18:00 : [AeroDynamik] - [Mensagem do servidor]: Parabéns I-Zoe-I pela criação do personagem Arch
01:19:41 : [AeroDynamik] - [Mensagem do servidor]: DeathSavage falhou a refinação de Cythera_Mística para 14
01:20:24 : [AeroDynamik] - [Mensagem do servidor]: DeathSavage falhou a refinação de Cythera_Mística para 13
01:20:40 : [AeroDynamik] - [Mensagem do servidor]: Jogador DeathSavage obteve sucesso na refinação item +12
01:20:56 : [AeroDynamik] - [Mensagem do servidor]: Jogador DeathSavage obteve sucesso na refinação item +13
01:21:19 : [AeroDynamik] - [Mensagem do servidor]: Jogador DeathSavage obteve sucesso na refinação item +14
01:22:26 : [AeroDynamik] - [Mensagem do servidor]: Jogador DeathSavage obteve sucesso na refinação item +15
01:23:05 : [AeroDynamik] - [Mensagem do servidor]: -Mikau- falhou na composição do item Cajado para Ancient
01:23:51 : [AeroDynamik] - [Mensagem do servidor]: Jogador RhadamanthyS obteve sucesso na composição de Mjolnir_(Anct)
01:24:07 : [AeroDynamik] - [Mensagem do servidor]: Jogador I-Zoe-I obteve sucesso na refinação item +13
01:24:08 : [AeroDynamik] - [Mensagem do servidor]: Mob foi derrotado por Shaaari
01:24:18 : [AeroDynamik] - [Mensagem do servidor]: Jogador DeathSavage obteve sucesso na refinação item +13
01:24:18 : [AeroDynamik] - [Mensagem do servidor]: Jogador I-Zoe-I obteve sucesso na refinação item +14
01:24:36 : [AeroDynamik] - [Mensagem do servidor]: I-Zoe-I falhou a refinação de Eirenus(Anct) para 15
01:24:39 : [AeroDynamik] - [Mensagem do servidor]: Jogador DeathSavage obteve sucesso na refinação item +14
01:24:43 : [AeroDynamik] - [Mensagem do servidor]: Jogador -Mikau- obteve sucesso na composição de Fúria_Divina(Anct)
01:24:53 : [AeroDynamik] - [Mensagem do servidor]: Jogador I-Zoe-I obteve sucesso na refinação item +14
01:24:59 : [AeroDynamik] - [Mensagem do servidor]: DeathSavage falhou a refinação de Armadura para 15
01:25:07 : [AeroDynamik] - [Mensagem do servidor]: Jogador I-Zoe-I obteve sucesso na refinação item +15
01:25:14 : [AeroDynamik] - [Mensagem do servidor]: Jogador DeathSavage obteve sucesso na refinação item +14
01:26:06 : [AeroDynamik] - [Mensagem do servidor]: Jogador -Mikau- obteve sucesso na composição de Eirenus(Anct)
01:26:44 : [AeroDynamik] - [Mensagem do servidor]: Jogador RhadamanthyS obteve sucesso na composição de Martelo_Assassino(Anct)
01:27:01 : [AeroDynamik] - [Mensagem do servidor]: Jogador RhadamanthyS obteve sucesso na composição de Martelo_Assassino(Anct)
01:27:05 : [AeroDynamik] - [Mensagem do servidor]: Obliviate falhou a refinação de Cythera_Arcana para 14
01:27:57 : [AeroDynamik] - [Mensagem do servidor]: Jogador Obliviate obteve sucesso na refinação item +13
01:30:25 : [AeroDynamik] - [Mensagem do servidor]: Jogador Obliviate obteve sucesso na refinação item +14
01:30:36 : [AeroDynamik] - [Mensagem do servidor]: Jogador Obliviate obteve sucesso na refinação item +15
01:31:15 : [AeroDynamik] - [Mensagem do servidor]: Jogador Obliviate obteve sucesso na refinação item +13
01:31:25 : [AeroDynamik] - [Mensagem do servidor]: Obliviate falhou a refinação de Skytalos(Anct) para 14
01:31:29 : [AeroDynamik] - ADMIN5 Recebeu lParam (WndProc) como 32. Erro possível: 10053. Desconectando o usuário.
01:31:29 : [AeroDynamik] - 6 Personagem foi desconectado. Permaneceu 00:39:57 minutos online
14:05:56 : =========================== NOVA SESSÃO ==========================
Tentativa de logar na conta (ADMIN5) - IP: 84.123.38.2 Mac: (0B:A7:7A:4E:00:4C). ClientId: 12
14:05:56 : [Mensagem do servidor]> Senha incorreta.
14:05:56 : Personagem foi desconectado. Permaneceu 00:00:00 minutos online
14:06:01 : =========================== NOVA SESSÃO ==========================
Tentativa de logar na conta (ADMIN5) - IP: 84.123.38.2 Mac: (0B:A7:7A:4E:00:4C). ClientId: 12
14:06:01 : Usuário logou no jogo com clientId 12. - Servidor 1. Gold do banco: 0
14:06:01 : [INFORMAÇÕES DO BANCO]
Gold: 0
[  0] - Arco_Guardião[3556] [43 9 2 36 0 0]
[  1] - Lobo_Polar[3980] [96 3 0 0 0 0]
[  2] - Âmago_de_Javali[2391] [0 0 0 0 0 0]
[  5] - Barra_de_Ouro_(10Bi)[4012] [0 0 0 0 0 0]
[  9] - Dragão_Vermelho[2380] [10 10 120 30 0 0]
[ 10] - Kit_de_Cura_(20_M.)[682] [61 20 0 0 0 0]
[ 14] - Pegasus[2382] [10 10 120 30 0 0]
[ 15] - Baú_de_Experiência[4140] [61 4 0 0 0 0]
[ 19] - Moeda_de_Bronze(50Mi)[4029] [61 101 0 0 0 0]
[ 20] - Frango_Assado[3314] [61 9 0 0 0 0]
[ 25] - Ração_de_Aranha[2420] [61 120 0 0 0 0]
[ 80] - Andaluz_N[2370] [10 10 100 60 10 0]
[ 90] - Ração_de_Aranha[2420] [61 120 0 0 0 0]
[ 95] - Resto_de_Oriharucon[419] [61 10 0 0 0 0]
[100] - Resto_de_Lactolerium[420] [59 46 59 14 59 61]
[105] - Poeira_de_Lactolerium[413] [61 214 0 0 0 0]
[200] - Caixa_do_Andarilho[3479] [106 21 110 2 109 121]
[201] - Caixa_do_Andarilho[3479] [106 21 110 2 109 121]

14:06:07 : Enviou senha numérica correta. 
14:06:10 : Solicitou ir ao mundo...
14:06:10 : Recebido pedido para entrar no jogo
14:06:10 : Recebido informação do personagem completa.
14:06:10 : [Wozzzzzzzzz] - [INFORMAÇÕES DA CONTA]
Personagem online: Wozzzzzzzzz
Gold atual: 193253123
Level atual: 1010
Experiência atual: 496564540
Evolução atual: Unknown
Tempo online até o momento: 00 dias e 00:00:09 horas
Posição atual: 2087x 2095y

Pontos NT: 0
Entradas Hall: 0
Info: 0
Soul: 0
Divina: 0/0/0 0:0:0
Sephira: 0/0/0 0:0:0
Saude: 0/0/0 0:0:0
Escritura: 0/0/0 0:0:0
Revigorante: 0/0/0 0:0:0
LastGuildKickout: 0/0/0 0:0:0
[EQUIPAMENTOS]
[00] - Warrior[1] [43 0 1 0 1 1]
[01] - Elmo(A)[1208] [43 9 3 25 26 18]
[02] - Armadura(A)[1211] [43 9 2 30 71 70]
[03] - Calça(A)[1214] [43 9 2 30 71 70]
[04] - Luvas(A)[1217] [43 9 54 18 72 30]
[05] - Botas(A)[1220] [43 9 73 30 74 18]
[06] - Arco[826] [0 0 0 0 0 0]
[16] - Asa_Angelical[3102] [0 0 0 0 0 0]

[INVENTÁRIO]
[02] - Trombeta_Mágica[3330] [61 3 0 0 0 0]
[03] - Ovo_de_Javali[2301] [78 2 0 0 0 0]
[15] - Poeira_de_Lactolerium[413] [0 0 0 0 0 0]
[16] - Pedido_de_Caça(Kefra)[3436] [61 4 0 0 0 0]
[18] - Pergaminho_da_Água(M)LV1[777] [0 0 0 0 0 0]
[19] - Pergaminho_da_Água(A)LV1[3182] [0 0 0 0 0 0]
[63] - Marca_do_Assassino[547] [81 0 0 0 77 0]

[USUÁRIOS LOGADOS]
Nenhuma outra conta logada 

14:06:10 : [Wozzzzzzzzz] - Personagem Wozzzzzzzzz enviado ao mundo 2087x 2095y - Canal 1 - Cash da conta: 15578. PowerLevel: 1409
14:06:10 : [Wozzzzzzzzz] - Gold atual: 193253123. Classe: 0 Evolução: 0. Experiência: 496564540. Nível: 1010. Info: 0. GuildID: 0. CP: 6. Pontos de Contribuição: 0. Limite: 0
14:06:10 : [Wozzzzzzzzz] - Logou no personagem Wozzzzzzzzz com poção divina ativo. Validade: 21/2/2021 9:16:26
14:06:10 : [Wozzzzzzzzz] - [Mensagem do servidor]> A guild [Teste123] derrotou Kefra
14:06:10 : [Wozzzzzzzzz] - Enviado informações do personagem
14:06:12 : [Wozzzzzzzzz] - Comando "/day "
14:06:12 : [Wozzzzzzzzz] - [Mensagem do servidor]> !#11 2
14:06:24 : [Wozzzzzzzzz] - O usuï¿½rio nï¿½o enviou o pacote de integridade de macaddress
14:06:27 : [Wozzzzzzzzz] - Teleportado para a posição 960 1761
14:07:51 : [Wozzzzzzzzz] - Dropado item Luvas(M) [1351] [43 0 72 25 59 0] em 1193x 1714y - Tauron (1/300)
14:08:10 : [Wozzzzzzzzz] - ADMIN5 Recebeu lParam (WndProc) como 32. Erro possível: 0. Desconectando o usuário.
14:08:10 : [Wozzzzzzzzz] - 12 Personagem foi desconectado. Permaneceu 00:02:07 minutos online
14:09:09 : =========================== NOVA SESSÃO ==========================
Tentativa de logar na conta (ADMIN5) - IP: 84.123.38.2 Mac: (0B:A7:7A:4E:00:4C). ClientId: 12
14:09:09 : Usuário logou no jogo com clientId 12. - Servidor 1. Gold do banco: 0
14:09:09 : [INFORMAÇÕES DO BANCO]
Gold: 0
[  0] - Arco_Guardião[3556] [43 9 2 36 0 0]
[  1] - Lobo_Polar[3980] [96 3 0 0 0 0]
[  2] - Âmago_de_Javali[2391] [0 0 0 0 0 0]
[  5] - Barra_de_Ouro_(10Bi)[4012] [0 0 0 0 0 0]
[  9] - Dragão_Vermelho[2380] [10 10 120 30 0 0]
[ 10] - Kit_de_Cura_(20_M.)[682] [61 20 0 0 0 0]
[ 14] - Pegasus[2382] [10 10 120 30 0 0]
[ 15] - Baú_de_Experiência[4140] [61 4 0 0 0 0]
[ 19] - Moeda_de_Bronze(50Mi)[4029] [61 101 0 0 0 0]
[ 20] - Frango_Assado[3314] [61 9 0 0 0 0]
[ 25] - Ração_de_Aranha[2420] [61 120 0 0 0 0]
[ 80] - Andaluz_N[2370] [10 10 100 60 10 0]
[ 90] - Ração_de_Aranha[2420] [61 120 0 0 0 0]
[ 95] - Resto_de_Oriharucon[419] [61 10 0 0 0 0]
[100] - Resto_de_Lactolerium[420] [59 46 59 14 59 61]
[105] - Poeira_de_Lactolerium[413] [61 214 0 0 0 0]
[200] - Caixa_do_Andarilho[3479] [106 21 110 2 109 121]
[201] - Caixa_do_Andarilho[3479] [106 21 110 2 109 121]

14:09:18 : Enviou senha numérica correta. 
14:09:19 : Solicitou ir ao mundo...
14:09:19 : Recebido pedido para entrar no jogo
14:09:19 : Recebido informação do personagem completa.
14:09:19 : [Wozzzzzzzzz] - [INFORMAÇÕES DA CONTA]
Personagem online: Wozzzzzzzzz
Gold atual: 193252123
Level atual: 1010
Experiência atual: 496565020
Evolução atual: Unknown
Tempo online até o momento: 00 dias e 00:00:11 horas
Posição atual: 2098x 2093y

Pontos NT: 0
Entradas Hall: 0
Info: 0
Soul: 0
Divina: 0/0/0 0:0:0
Sephira: 0/0/0 0:0:0
Saude: 0/0/0 0:0:0
Escritura: 0/0/0 0:0:0
Revigorante: 0/0/0 0:0:0
LastGuildKickout: 0/0/0 0:0:0
[EQUIPAMENTOS]
[00] - Warrior[1] [43 0 1 0 1 1]
[01] - Elmo(A)[1208] [43 9 3 25 26 18]